src/tests/data/grids/DGS/IEEE118_v2_test.dgs
********************************************************************************
*
* DIgSILENT (R) DGS Export V1.8.4
* Copyright 1997-2026 DIgSILENT GmbH. All rights reserved.
*
* DIgSILENT (C) PowerFactory V25.0.3.0
*
* Date:     02/02/2026 12:19
* Project:  Import(6) (Study Case: Study Case)
*
********************************************************************************


$$General;FID(a:40);Descr(a:40);Val(a:255)
  1;Version;7.0


$$ChaRef;FID(a:40);OP(a:1);loc_name(a:80);fold_id(p)
  2;C;vmax;ElmTerm_1
  3;C;vmin;ElmTerm_1
  4;C;vmax;ElmTerm_10
  5;C;vmin;ElmTerm_10
  6;C;vmax;ElmTerm_100
  7;C;vmin;ElmTerm_100
  8;C;vmax;ElmTerm_101
  9;C;vmin;ElmTerm_101
  10;C;vmax;ElmTerm_102
  11;C;vmin;ElmTerm_102
  12;C;vmax;ElmTerm_103
  13;C;vmin;ElmTerm_103
  14;C;vmax;ElmTerm_104
  15;C;vmin;ElmTerm_104
  16;C;vmax;ElmTerm_105
  17;C;vmin;ElmTerm_105
  18;C;vmax;ElmTerm_106
  19;C;vmin;ElmTerm_106
  20;C;vmax;ElmTerm_107
  21;C;vmin;ElmTerm_107
  22;C;vmax;ElmTerm_108
  23;C;vmin;ElmTerm_108
  24;C;vmax;ElmTerm_109
  25;C;vmin;ElmTerm_109
  26;C;vmax;ElmTerm_11
  27;C;vmin;ElmTerm_11
  28;C;vmax;ElmTerm_110
  29;C;vmin;ElmTerm_110
  30;C;vmax;ElmTerm_111
  31;C;vmin;ElmTerm_111
  32;C;vmax;ElmTerm_112
  33;C;vmin;ElmTerm_112
  34;C;vmax;ElmTerm_113
  35;C;vmin;ElmTerm_113
  36;C;vmax;ElmTerm_114
  37;C;vmin;ElmTerm_114
  38;C;vmax;ElmTerm_115
  39;C;vmin;ElmTerm_115
  40;C;vmax;ElmTerm_116
  41;C;vmin;ElmTerm_116
  42;C;vmax;ElmTerm_117
  43;C;vmin;ElmTerm_117
  44;C;vmax;ElmTerm_118
  45;C;vmin;ElmTerm_118
  46;C;vmax;ElmTerm_12
  47;C;vmin;ElmTerm_12
  48;C;vmax;ElmTerm_13
  49;C;vmin;ElmTerm_13
  50;C;vmax;ElmTerm_14
  51;C;vmin;ElmTerm_14
  52;C;vmax;ElmTerm_15
  53;C;vmin;ElmTerm_15
  54;C;vmax;ElmTerm_16
  55;C;vmin;ElmTerm_16
  56;C;vmax;ElmTerm_17
  57;C;vmin;ElmTerm_17
  58;C;vmax;ElmTerm_18
  59;C;vmin;ElmTerm_18
  60;C;vmax;ElmTerm_19
  61;C;vmin;ElmTerm_19
  62;C;vmax;ElmTerm_2
  63;C;vmin;ElmTerm_2
  64;C;vmax;ElmTerm_20
  65;C;vmin;ElmTerm_20
  66;C;vmax;ElmTerm_21
  67;C;vmin;ElmTerm_21
  68;C;vmax;ElmTerm_22
  69;C;vmin;ElmTerm_22
  70;C;vmax;ElmTerm_23
  71;C;vmin;ElmTerm_23
  72;C;vmax;ElmTerm_24
  73;C;vmin;ElmTerm_24
  74;C;vmax;ElmTerm_25
  75;C;vmin;ElmTerm_25
  76;C;vmax;ElmTerm_26
  77;C;vmin;ElmTerm_26
  78;C;vmax;ElmTerm_27
  79;C;vmin;ElmTerm_27
  80;C;vmax;ElmTerm_28
  81;C;vmin;ElmTerm_28
  82;C;vmax;ElmTerm_29
  83;C;vmin;ElmTerm_29
  84;C;vmax;ElmTerm_3
  85;C;vmin;ElmTerm_3
  86;C;vmax;ElmTerm_30
  87;C;vmin;ElmTerm_30
  88;C;vmax;ElmTerm_31
  89;C;vmin;ElmTerm_31
  90;C;vmax;ElmTerm_32
  91;C;vmin;ElmTerm_32
  92;C;vmax;ElmTerm_33
  93;C;vmin;ElmTerm_33
  94;C;vmax;ElmTerm_34
  95;C;vmin;ElmTerm_34
  96;C;vmax;ElmTerm_35
  97;C;vmin;ElmTerm_35
  98;C;vmax;ElmTerm_36
  99;C;vmin;ElmTerm_36
  100;C;vmax;ElmTerm_37
  101;C;vmin;ElmTerm_37
  102;C;vmax;ElmTerm_38
  103;C;vmin;ElmTerm_38
  104;C;vmax;ElmTerm_39
  105;C;vmin;ElmTerm_39
  106;C;vmax;ElmTerm_4
  107;C;vmin;ElmTerm_4
  108;C;vmax;ElmTerm_40
  109;C;vmin;ElmTerm_40
  110;C;vmax;ElmTerm_41
  111;C;vmin;ElmTerm_41
  112;C;vmax;ElmTerm_42
  113;C;vmin;ElmTerm_42
  114;C;vmax;ElmTerm_43
  115;C;vmin;ElmTerm_43
  116;C;vmax;ElmTerm_44
  117;C;vmin;ElmTerm_44
  118;C;vmax;ElmTerm_45
  119;C;vmin;ElmTerm_45
  120;C;vmax;ElmTerm_46
  121;C;vmin;ElmTerm_46
  122;C;vmax;ElmTerm_47
  123;C;vmin;ElmTerm_47
  124;C;vmax;ElmTerm_48
  125;C;vmin;ElmTerm_48
  126;C;vmax;ElmTerm_49
  127;C;vmin;ElmTerm_49
  128;C;vmax;ElmTerm_5
  129;C;vmin;ElmTerm_5
  130;C;vmax;ElmTerm_50
  131;C;vmin;ElmTerm_50
  132;C;vmax;ElmTerm_51
  133;C;vmin;ElmTerm_51
  134;C;vmax;ElmTerm_52
  135;C;vmin;ElmTerm_52
  136;C;vmax;ElmTerm_53
  137;C;vmin;ElmTerm_53
  138;C;vmax;ElmTerm_54
  139;C;vmin;ElmTerm_54
  140;C;vmax;ElmTerm_55
  141;C;vmin;ElmTerm_55
  142;C;vmax;ElmTerm_56
  143;C;vmin;ElmTerm_56
  144;C;vmax;ElmTerm_57
  145;C;vmin;ElmTerm_57
  146;C;vmax;ElmTerm_58
  147;C;vmin;ElmTerm_58
  148;C;vmax;ElmTerm_59
  149;C;vmin;ElmTerm_59
  150;C;vmax;ElmTerm_6
  151;C;vmin;ElmTerm_6
  152;C;vmax;ElmTerm_60
  153;C;vmin;ElmTerm_60
  154;C;vmax;ElmTerm_61
  155;C;vmin;ElmTerm_61
  156;C;vmax;ElmTerm_62
  157;C;vmin;ElmTerm_62
  158;C;vmax;ElmTerm_63
  159;C;vmin;ElmTerm_63
  160;C;vmax;ElmTerm_64
  161;C;vmin;ElmTerm_64
  162;C;vmax;ElmTerm_65
  163;C;vmin;ElmTerm_65
  164;C;vmax;ElmTerm_66
  165;C;vmin;ElmTerm_66
  166;C;vmax;ElmTerm_67
  167;C;vmin;ElmTerm_67
  168;C;vmax;ElmTerm_68
  169;C;vmin;ElmTerm_68
  170;C;vmax;ElmTerm_69
  171;C;vmin;ElmTerm_69
  172;C;vmax;ElmTerm_7
  173;C;vmin;ElmTerm_7
  174;C;vmax;ElmTerm_70
  175;C;vmin;ElmTerm_70
  176;C;vmax;ElmTerm_71
  177;C;vmin;ElmTerm_71
  178;C;vmax;ElmTerm_72
  179;C;vmin;ElmTerm_72
  180;C;vmax;ElmTerm_73
  181;C;vmin;ElmTerm_73
  182;C;vmax;ElmTerm_74
  183;C;vmin;ElmTerm_74
  184;C;vmax;ElmTerm_75
  185;C;vmin;ElmTerm_75
  186;C;vmax;ElmTerm_76
  187;C;vmin;ElmTerm_76
  188;C;vmax;ElmTerm_77
  189;C;vmin;ElmTerm_77
  190;C;vmax;ElmTerm_78
  191;C;vmin;ElmTerm_78
  192;C;vmax;ElmTerm_79
  193;C;vmin;ElmTerm_79
  194;C;vmax;ElmTerm_8
  195;C;vmin;ElmTerm_8
  196;C;vmax;ElmTerm_80
  197;C;vmin;ElmTerm_80
  198;C;vmax;ElmTerm_81
  199;C;vmin;ElmTerm_81
  200;C;vmax;ElmTerm_82
  201;C;vmin;ElmTerm_82
...


$$ChaVec;FID(a:40);OP(a:1);loc_name(a:80);fold_id(p);scale(p);usage(i);approx(i);vector:SIZEROW(i);vector:0(r);vector:1(r)
  238;C;0.9_0.9;;;2;0;2;0,9;0,9
  239;C;1.1_1.1;;;2;0;2;1,1;1,1


$$ElmLne;FID(a:40);OP(a:1);loc_name(a:80);fold_id(p);typ_id(p);dline(r);fline(r);GPScoords:MATRIX(a);nlnum(i);inAir(i)
  240;C;lne_100_101_1;410;1530;1;1;;1;0
  241;C;lne_100_103_1;410;1531;1;1;;1;0
  242;C;lne_100_104_1;410;1532;1;1;;1;0
  243;C;lne_100_106_1;410;1533;1;1;;1;0
  244;C;lne_101_102_1;410;1534;1;1;;1;0
  245;C;lne_103_104_1;410;1535;1;1;;1;0
  246;C;lne_103_105_1;410;1536;1;1;;1;0
  247;C;lne_103_110_1;410;1537;1;1;;1;0
  248;C;lne_104_105_1;410;1538;1;1;;1;0
  249;C;lne_105_106_1;410;1539;1;1;;1;0
  250;C;lne_105_107_1;410;1540;1;1;;1;0
  251;C;lne_105_108_1;410;1541;1;1;;1;0
  252;C;lne_106_107_1;410;1542;1;1;;1;0
  253;C;lne_108_109_1;410;1543;1;1;;1;0
  254;C;lne_109_110_1;410;1544;1;1;;1;0
  255;C;lne_110_111_1;410;1545;1;1;;1;0
  256;C;lne_110_112_1;410;1546;1;1;;1;0
  257;C;lne_114_115_1;410;1547;1;1;;1;0
  258;C;lne_11_12_1;410;1548;1;1;;1;0
  259;C;lne_11_13_1;410;1549;1;1;;1;0
  260;C;lne_12_117_1;410;1550;1;1;;1;0
  261;C;lne_12_14_1;410;1551;1;1;;1;0
  262;C;lne_12_16_1;410;1552;1;1;;1;0
  263;C;lne_13_15_1;410;1553;1;1;;1;0
  264;C;lne_14_15_1;410;1554;1;1;;1;0
  265;C;lne_15_17_1;410;1555;1;1;;1;0
  266;C;lne_15_19_1;410;1556;1;1;;1;0
  267;C;lne_15_33_1;410;1557;1;1;;1;0
  268;C;lne_16_17_1;410;1558;1;1;;1;0
  269;C;lne_17_113_1;410;1559;1;1;;1;0
  270;C;lne_17_18_1;410;1560;1;1;;1;0
  271;C;lne_17_31_1;410;1561;1;1;;1;0
  272;C;lne_18_19_1;410;1562;1;1;;1;0
  273;C;lne_19_20_1;410;1563;1;1;;1;0
  274;C;lne_19_34_1;410;1564;1;1;;1;0
  275;C;lne_1_2_1;410;1565;1;1;;1;0
  276;C;lne_1_3_1;410;1566;1;1;;1;0
  277;C;lne_20_21_1;410;1567;1;1;;1;0
  278;C;lne_21_22_1;410;1568;1;1;;1;0
  279;C;lne_22_23_1;410;1569;1;1;;1;0
  280;C;lne_23_24_1;410;1570;1;1;;1;0
  281;C;lne_23_25_1;410;1571;1;1;;1;0
  282;C;lne_23_32_1;410;1572;1;1;;1;0
  283;C;lne_24_70_1;410;1573;1;1;;1;0
  284;C;lne_24_72_1;410;1574;1;1;;1;0
  285;C;lne_25_27_1;410;1575;1;1;;1;0
  286;C;lne_26_30_1;410;1576;1;1;;1;0
  287;C;lne_27_115_1;410;1577;1;1;;1;0
  288;C;lne_27_28_1;410;1578;1;1;;1;0
  289;C;lne_27_32_1;410;1579;1;1;;1;0
  290;C;lne_28_29_1;410;1580;1;1;;1;0
  291;C;lne_29_31_1;410;1581;1;1;;1;0
  292;C;lne_2_12_1;410;1582;1;1;;1;0
  293;C;lne_30_38_1;410;1583;1;1;;1;0
  294;C;lne_31_32_1;410;1584;1;1;;1;0
  295;C;lne_32_113_1;410;1585;1;1;;1;0
  296;C;lne_32_114_1;410;1586;1;1;;1;0
  297;C;lne_33_37_1;410;1587;1;1;;1;0
  298;C;lne_34_36_1;410;1588;1;1;;1;0
  299;C;lne_34_37_1;410;1589;1;1;;1;0
  300;C;lne_34_43_1;410;1590;1;1;;1;0
  301;C;lne_35_36_1;410;1591;1;1;;1;0
  302;C;lne_35_37_1;410;1592;1;1;;1;0
  303;C;lne_37_39_1;410;1593;1;1;;1;0
  304;C;lne_37_40_1;410;1594;1;1;;1;0
  305;C;lne_38_65_1;410;1595;1;1;;1;0
  306;C;lne_39_40_1;410;1596;1;1;;1;0
  307;C;lne_3_12_1;410;1597;1;1;;1;0
  308;C;lne_3_5_1;410;1598;1;1;;1;0
  309;C;lne_40_41_1;410;1599;1;1;;1;0
  310;C;lne_40_42_1;410;1600;1;1;;1;0
  311;C;lne_41_42_1;410;1601;1;1;;1;0
  312;C;lne_42_49_1;410;1602;1;1;;1;0
  313;C;lne_43_44_1;410;1603;1;1;;1;0
  314;C;lne_44_45_1;410;1604;1;1;;1;0
  315;C;lne_45_46_1;410;1605;1;1;;1;0
  316;C;lne_45_49_1;410;1606;1;1;;1;0
  317;C;lne_46_47_1;410;1607;1;1;;1;0
  318;C;lne_46_48_1;410;1608;1;1;;1;0
  319;C;lne_47_49_1;410;1609;1;1;;1;0
  320;C;lne_47_69_1;410;1610;1;1;;1;0
  321;C;lne_48_49_1;410;1611;1;1;;1;0
  322;C;lne_49_50_1;410;1612;1;1;;1;0
  323;C;lne_49_51_1;410;1613;1;1;;1;0
  324;C;lne_49_54_1;410;1614;1;1;;1;0
  325;C;lne_49_66_1;410;1615;1;1;;1;0
  326;C;lne_49_69_1;410;1616;1;1;;1;0
  327;C;lne_4_11_1;410;1617;1;1;;1;0
  328;C;lne_4_5_1;410;1618;1;1;;1;0
  329;C;lne_50_57_1;410;1619;1;1;;1;0
  330;C;lne_51_52_1;410;1620;1;1;;1;0
  331;C;lne_51_58_1;410;1621;1;1;;1;0
  332;C;lne_52_53_1;410;1622;1;1;;1;0
  333;C;lne_53_54_1;410;1623;1;1;;1;0
  334;C;lne_54_55_1;410;1624;1;1;;1;0
  335;C;lne_54_56_1;410;1625;1;1;;1;0
  336;C;lne_54_59_1;410;1626;1;1;;1;0
  337;C;lne_55_56_1;410;1627;1;1;;1;0
  338;C;lne_55_59_1;410;1628;1;1;;1;0
  339;C;lne_56_57_1;410;1629;1;1;;1;0
  340;C;lne_56_58_1;410;1630;1;1;;1;0
  341;C;lne_56_59_1;410;1631;1;1;;1;0
  342;C;lne_59_60_1;410;1632;1;1;;1;0
  343;C;lne_59_61_1;410;1633;1;1;;1;0
  344;C;lne_5_11_1;410;1634;1;1;;1;0
  345;C;lne_5_6_1;410;1635;1;1;;1;0
  346;C;lne_60_61_1;410;1636;1;1;;1;0
  347;C;lne_60_62_1;410;1637;1;1;;1;0
  348;C;lne_61_62_1;410;1638;1;1;;1;0
  349;C;lne_62_66_1;410;1639;1;1;;1;0
  350;C;lne_62_67_1;410;1640;1;1;;1;0
  351;C;lne_63_64_1;410;1641;1;1;;1;0
  352;C;lne_64_65_1;410;1642;1;1;;1;0
  353;C;lne_65_68_1;410;1643;1;1;;1;0
  354;C;lne_66_67_1;410;1644;1;1;;1;0
  355;C;lne_68_116_1;410;1645;1;1;;1;0
  356;C;lne_68_81_1;410;1646;1;1;;1;0
  357;C;lne_69_70_1;410;1647;1;1;;1;0
  358;C;lne_69_75_1;410;1648;1;1;;1;0
  359;C;lne_69_77_1;410;1649;1;1;;1;0
  360;C;lne_6_7_1;410;1650;1;1;;1;0
  361;C;lne_70_71_1;410;1651;1;1;;1;0
  362;C;lne_70_74_1;410;1652;1;1;;1;0
  363;C;lne_70_75_1;410;1653;1;1;;1;0
  364;C;lne_71_72_1;410;1654;1;1;;1;0
  365;C;lne_71_73_1;410;1655;1;1;;1;0
  366;C;lne_74_75_1;410;1656;1;1;;1;0
  367;C;lne_75_118_1;410;1657;1;1;;1;0
  368;C;lne_75_77_1;410;1658;1;1;;1;0
  369;C;lne_76_118_1;410;1659;1;1;;1;0
  370;C;lne_76_77_1;410;1660;1;1;;1;0
  371;C;lne_77_78_1;410;1661;1;1;;1;0
  372;C;lne_77_80_1;410;1662;1;1;;1;0
  373;C;lne_77_82_1;410;1663;1;1;;1;0
  374;C;lne_78_79_1;410;1664;1;1;;1;0
  375;C;lne_79_80_1;410;1665;1;1;;1;0
  376;C;lne_7_12_1;410;1666;1;1;;1;0
  377;C;lne_80_96_1;410;1667;1;1;;1;0
  378;C;lne_80_97_1;410;1668;1;1;;1;0
  379;C;lne_80_98_1;410;1669;1;1;;1;0
  380;C;lne_80_99_1;410;1670;1;1;;1;0
  381;C;lne_82_83_1;410;1671;1;1;;1;0
  382;C;lne_82_96_1;410;1672;1;1;;1;0
  383;C;lne_83_84_1;410;1673;1;1;;1;0
  384;C;lne_83_85_1;410;1674;1;1;;1;0
  385;C;lne_84_85_1;410;1675;1;1;;1;0
  386;C;lne_85_86_1;410;1676;1;1;;1;0
  387;C;lne_85_88_1;410;1677;1;1;;1;0
  388;C;lne_85_89_1;410;1678;1;1;;1;0
  389;C;lne_86_87_1;410;1679;1;1;;1;0
  390;C;lne_88_89_1;410;1680;1;1;;1;0
  391;C;lne_89_90_1;410;1681;1;1;;1;0
  392;C;lne_89_92_1;410;1682;1;1;;1;0
  393;C;lne_8_30_1;410;1683;1;1;;1;0
  394;C;lne_8_9_1;410;1684;1;1;;1;0
  395;C;lne_90_91_1;410;1685;1;1;;1;0
  396;C;lne_91_92_1;410;1686;1;1;;1;0
  397;C;lne_92_100_1;410;1687;1;1;;1;0
  398;C;lne_92_102_1;410;1688;1;1;;1;0
  399;C;lne_92_93_1;410;1689;1;1;;1;0
  400;C;lne_92_94_1;410;1690;1;1;;1;0
  401;C;lne_93_94_1;410;1691;1;1;;1;0
  402;C;lne_94_100_1;410;1692;1;1;;1;0
  403;C;lne_94_95_1;410;1693;1;1;;1;0
  404;C;lne_94_96_1;410;1694;1;1;;1;0
  405;C;lne_95_96_1;410;1695;1;1;;1;0
  406;C;lne_96_97_1;410;1696;1;1;;1;0
  407;C;lne_98_100_1;410;1697;1;1;;1;0
  408;C;lne_99_100_1;410;1698;1;1;;1;0
  409;C;lne_9_10_1;410;1699;1;1;;1;0


$$ElmLod;FID(a:40);OP(a:1);loc_name(a:80);fold_id(p);typ_id(p);mode_inp(a:6);slini(r);plini(r);qlini(r);coslini(r);pf_recap(i);scale0(r);i_scale(i);outserv(i);classif(a:40)
  ElmLod_100_1;C;lod_100_1;410;1700;DEF;41,14608;37;18;0,899235;0;1;1;0;
  ElmLod_101_1;C;lod_101_1;410;1701;DEF;26,62705;22;15;0,826227;0;1;1;0;
  ElmLod_102_1;C;lod_102_1;410;1702;DEF;5,830952;5;3;0,857493;0;1;1;0;
  ElmLod_103_1;C;lod_103_1;410;1703;DEF;28,01785;23;16;0,820905;0;1;1;0;
  ElmLod_104_1;C;lod_104_1;410;1704;DEF;45,48626;38;25;0,835417;0;1;1;0;
  ElmLod_105_1;C;lod_105_1;410;1705;DEF;40,45986;31;26;0,766191;0;1;1;0;
  ElmLod_106_1;C;lod_106_1;410;1706;DEF;45,88028;43;16;0,937221;0;1;1;0;
  ElmLod_107_1;C;lod_107_1;410;1707;DEF;51,41984;50;12;0,972387;0;1;1;0;
  ElmLod_108_1;C;lod_108_1;410;1708;DEF;2,236068;2;1;0,894427;0;1;1;0;
  ElmLod_109_1;C;lod_109_1;410;1709;DEF;8,544003;8;3;0,936329;0;1;1;0;
  ElmLod_110_1;C;lod_110_1;410;1710;DEF;49,20366;39;30;0,792624;0;1;1;0;
  ElmLod_112_1;C;lod_112_1;410;1711;DEF;69,2315;68;13;0,982211;0;1;1;0;
  ElmLod_113_1;C;lod_113_1;410;1712;DEF;6;6;0;1;0;1;1;0;
  ElmLod_114_1;C;lod_114_1;410;1713;DEF;8,544003;8;3;0,936329;0;1;1;0;
  ElmLod_115_1;C;lod_115_1;410;1714;DEF;23,08679;22;7;0,952925;0;1;1;0;
  ElmLod_116_1;C;lod_116_1;410;1715;DEF;184;184;0;1;0;1;1;0;
  ElmLod_117_1;C;lod_117_1;410;1716;DEF;21,54066;20;8;0,928476;0;1;1;0;
  ElmLod_118_1;C;lod_118_1;410;1717;DEF;36,24914;33;15;0,910366;0;1;1;0;
  ElmLod_11_1;C;lod_11_1;410;1718;DEF;73,68175;70;23;0,950031;0;1;1;0;
  ElmLod_12_1;C;lod_12_1;410;1719;DEF;48,05206;47;10;0,978105;0;1;1;0;
  ElmLod_13_1;C;lod_13_1;410;1720;DEF;37,57659;34;16;0,904818;0;1;1;0;
  ElmLod_14_1;C;lod_14_1;410;1721;DEF;14,03567;14;1;0,997458;0;1;1;0;
  ElmLod_15_1;C;lod_15_1;410;1722;DEF;94,86833;90;30;0,948683;0;1;1;0;
  ElmLod_16_1;C;lod_16_1;410;1723;DEF;26,92582;25;10;0,928476;0;1;1;0;
  ElmLod_17_1;C;lod_17_1;410;1724;DEF;11,40175;11;3;0,964763;0;1;1;0;
  ElmLod_18_1;C;lod_18_1;410;1725;DEF;68,96376;60;34;0,870022;0;1;1;0;
  ElmLod_19_1;C;lod_19_1;410;1726;DEF;51,47815;45;25;0,874157;0;1;1;0;
  ElmLod_1_1;C;lod_1_1;410;1727;DEF;57,70615;51;27;0,883787;0;1;1;0;
  ElmLod_20_1;C;lod_20_1;410;1728;DEF;18,24829;18;3;0,986393;0;1;1;0;
  ElmLod_21_1;C;lod_21_1;410;1729;DEF;16,12452;14;8;0,868243;0;1;1;0;
  ElmLod_22_1;C;lod_22_1;410;1730;DEF;11,18034;10;5;0,894427;0;1;1;0;
  ElmLod_23_1;C;lod_23_1;410;1731;DEF;7,615773;7;3;0,919145;0;1;1;0;
  ElmLod_24_1;C;lod_24_1;410;1732;DEF;13;13;0;1;0;1;1;0;
  ElmLod_27_1;C;lod_27_1;410;1733;DEF;72,18033;71;13;0,983647;0;1;1;0;
  ElmLod_28_1;C;lod_28_1;410;1734;DEF;18,38478;17;7;0,924678;0;1;1;0;
  ElmLod_29_1;C;lod_29_1;410;1735;DEF;24,33105;24;4;0,986393;0;1;1;0;
  ElmLod_2_1;C;lod_2_1;410;1736;DEF;21,93171;20;9;0,911921;0;1;1;0;
  ElmLod_31_1;C;lod_31_1;410;1737;DEF;50,77401;43;27;0,84689;0;1;1;0;
  ElmLod_32_1;C;lod_32_1;410;1738;DEF;63,32456;59;23;0,931708;0;1;1;0;
  ElmLod_33_1;C;lod_33_1;410;1739;DEF;24,69818;23;9;0,931242;0;1;1;0;
  ElmLod_34_1;C;lod_34_1;410;1740;DEF;64,4748;59;26;0,915086;0;1;1;0;
  ElmLod_35_1;C;lod_35_1;410;1741;DEF;34,20526;33;9;0,964763;0;1;1;0;
  ElmLod_36_1;C;lod_36_1;410;1742;DEF;35,35534;31;17;0,876812;0;1;1;0;
  ElmLod_39_1;C;lod_39_1;410;1743;DEF;29,15476;27;11;0,926092;0;1;1;0;
  ElmLod_3_1;C;lod_3_1;410;1744;DEF;40,26164;39;10;0,968663;0;1;1;0;
  ElmLod_40_1;C;lod_40_1;410;1745;DEF;69,89278;66;23;0,944303;0;1;1;0;
  ElmLod_41_1;C;lod_41_1;410;1746;DEF;38,32754;37;10;0,965363;0;1;1;0;
  ElmLod_42_1;C;lod_42_1;410;1747;DEF;98,71677;96;23;0,972479;0;1;1;0;
  ElmLod_43_1;C;lod_43_1;410;1748;DEF;19,31321;18;7;0,932004;0;1;1;0;
  ElmLod_44_1;C;lod_44_1;410;1749;DEF;17,88854;16;8;0,894427;0;1;1;0;
  ElmLod_45_1;C;lod_45_1;410;1750;DEF;57,38467;53;22;0,923591;0;1;1;0;
  ElmLod_46_1;C;lod_46_1;410;1751;DEF;29,73214;28;10;0,941741;0;1;1;0;
  ElmLod_47_1;C;lod_47_1;410;1752;DEF;34;34;0;1;0;1;1;0;
  ElmLod_48_1;C;lod_48_1;410;1753;DEF;22,82542;20;11;0,876215;0;1;1;0;
  ElmLod_49_1;C;lod_49_1;410;1754;DEF;92,02717;87;30;0,945373;0;1;1;0;
  ElmLod_4_1;C;lod_4_1;410;1755;DEF;40,80441;39;12;0,955779;0;1;1;0;
  ElmLod_50_1;C;lod_50_1;410;1756;DEF;17,46425;17;4;0,973417;0;1;1;0;
  ElmLod_51_1;C;lod_51_1;410;1757;DEF;18,78829;17;8;0,904818;0;1;1;0;
  ElmLod_52_1;C;lod_52_1;410;1758;DEF;18,68154;18;5;0,963517;0;1;1;0;
  ElmLod_53_1;C;lod_53_1;410;1759;DEF;25,4951;23;11;0,902134;0;1;1;0;
  ElmLod_54_1;C;lod_54_1;410;1760;DEF;117,4436;113;32;0,962163;0;1;1;0;
  ElmLod_55_1;C;lod_55_1;410;1761;DEF;66,7308;63;22;0,944091;0;1;1;0;
  ElmLod_56_1;C;lod_56_1;410;1762;DEF;85,90693;84;18;0,977802;0;1;1;0;
  ElmLod_57_1;C;lod_57_1;410;1763;DEF;12,36932;12;3;0,970142;0;1;1;0;
  ElmLod_58_1;C;lod_58_1;410;1764;DEF;12,36932;12;3;0,970142;0;1;1;0;
  ElmLod_59_1;C;lod_59_1;410;1765;DEF;299,1622;277;113;0,925919;0;1;1;0;
  ElmLod_60_1;C;lod_60_1;410;1766;DEF;78,05767;78;3;0,999261;0;1;1;0;
  ElmLod_62_1;C;lod_62_1;410;1767;DEF;78,26238;77;14;0,983869;0;1;1;0;
  ElmLod_66_1;C;lod_66_1;410;1768;DEF;42,95346;39;18;0,907959;0;1;1;0;
  ElmLod_67_1;C;lod_67_1;410;1769;DEF;28,86174;28;7;0,970142;0;1;1;0;
  ElmLod_6_1;C;lod_6_1;410;1770;DEF;56,46238;52;22;0,920967;0;1;1;0;
  ElmLod_70_1;C;lod_70_1;410;1771;DEF;68,96376;66;20;0,957024;0;1;1;0;
  ElmLod_72_1;C;lod_72_1;410;1772;DEF;12;12;0;1;0;1;1;0;
  ElmLod_73_1;C;lod_73_1;410;1773;DEF;6;6;0;1;0;1;1;0;
  ElmLod_74_1;C;lod_74_1;410;1774;DEF;73,1642;68;27;0,929416;0;1;1;0;
  ElmLod_75_1;C;lod_75_1;410;1775;DEF;48,27007;47;11;0,973688;0;1;1;0;
  ElmLod_76_1;C;lod_76_1;410;1776;DEF;76,94154;68;36;0,883787;0;1;1;0;
  ElmLod_77_1;C;lod_77_1;410;1777;DEF;67,11929;61;28;0,908829;0;1;1;0;
  ElmLod_78_1;C;lod_78_1;410;1778;DEF;75,61085;71;26;0,939018;0;1;1;0;
  ElmLod_79_1;C;lod_79_1;410;1779;DEF;50,44799;39;32;0,773073;0;1;1;0;
  ElmLod_7_1;C;lod_7_1;410;1780;DEF;19,10497;19;2;0,994505;0;1;1;0;
  ElmLod_80_1;C;lod_80_1;410;1781;DEF;132,5745;130;26;0,980580;0;1;1;0;
  ElmLod_82_1;C;lod_82_1;410;1782;DEF;60,37384;54;27;0,894427;0;1;1;0;
  ElmLod_83_1;C;lod_83_1;410;1783;DEF;22,36068;20;10;0,894427;0;1;1;0;
  ElmLod_84_1;C;lod_84_1;410;1784;DEF;13,0384;11;7;0,843661;0;1;1;0;
  ElmLod_85_1;C;lod_85_1;410;1785;DEF;28,30194;24;15;0,847998;0;1;1;0;
  ElmLod_86_1;C;lod_86_1;410;1786;DEF;23,25941;21;10;0,902860;0;1;1;0;
  ElmLod_88_1;C;lod_88_1;410;1787;DEF;49,0306;48;10;0,978980;0;1;1;0;
  ElmLod_8_1;C;lod_8_1;410;1788;DEF;28;28;0;1;0;1;1;0;
  ElmLod_90_1;C;lod_90_1;410;1789;DEF;168,3241;163;42;0,96837;0;1;1;0;
  ElmLod_91_1;C;lod_91_1;410;1790;DEF;10;10;0;1;0;1;1;0;
  ElmLod_92_1;C;lod_92_1;410;1791;DEF;65,76473;65;10;0,988371;0;1;1;0;
  ElmLod_93_1;C;lod_93_1;410;1792;DEF;13,89244;12;7;0,863778;0;1;1;0;
  ElmLod_94_1;C;lod_94_1;410;1793;DEF;34;30;16;0,882352;0;1;1;0;
  ElmLod_95_1;C;lod_95_1;410;1794;DEF;52,20153;42;31;0,804574;0;1;1;0;
  ElmLod_96_1;C;lod_96_1;410;1795;DEF;40,8534;38;15;0,930155;0;1;1;0;
  ElmLod_97_1;C;lod_97_1;410;1796;DEF;17,49286;15;9;0,857493;0;1;1;0;
  ElmLod_98_1;C;lod_98_1;410;1797;DEF;34,9285;34;8;0,973417;0;1;1;0;
  ElmLod_99_1;C;lod_99_1;410;1798;DEF;42;42;0;1;0;1;1;0;


$$ElmNet;FID(a:40);OP(a:1);loc_name(a:80);fold_id(p);frnom(r);pDiagram(p)
  410;C;1 IEEE11;;60;


$$ElmShnt;FID(a:40);OP(a:1);loc_name(a:80);fold_id(p);systp(i);ctech(i);shtype(i);ushnm(r);mode_inp(a:6);qcapn(r);ncapx(i);ncapa(i);outserv(i);qrean(r);qtotn(r);tandc(r);fres(r);greaf0(r);grea(r);bcap(r);xrea(r);rrea(r);gparac(r);iswitch(i);imldc(a:2);usetp_mx(r);usetp_mn(r);qsetp_mx(r);qsetp_mn(r);iQorient(i);ilcph(i)
  411;C;shntfix_105_1;410;0;1;2;138;LAY;20;1;1;0;0;20;0;0;0;0;1050,2;1163,98;0;0;0;V;1,05;0,95;0;0;0;0
  412;C;shntfix_107_1;410;0;1;2;138;LAY;6;1;1;0;0;6;0;0;0;0;315,0599;1163,98;0;0;0;V;1,05;0,95;0;0;0;0
  413;C;shntfix_110_1;410;0;1;2;138;LAY;6;1;1;0;0;6;0;0;0;0;315,0599;1163,98;0;0;0;V;1,05;0,95;0;0;0;0
  414;C;shntfix_34_1;410;0;1;2;138;LAY;14;1;1;0;0;14;0;0;0;0;735,1396;1163,98;0;0;0;V;1,05;0,95;0;0;0;0
  415;C;shntfix_37_1;410;0;1;1;138;LAY;0;1;1;0;25;25;0;0;0;0;49,4854;761,76;0;0;0;V;1,05;0,95;0;0;0;0
  416;C;shntfix_44_1;410;0;1;2;138;LAY;10;1;1;0;0;10;0;0;0;0;525,0998;1163,98;0;0;0;V;1,05;0,95;0;0;0;0
  417;C;shntfix_45_1;410;0;1;2;138;LAY;10;1;1;0;0;10;0;0;0;0;525,0998;1163,98;0;0;0;V;1,05;0,95;0;0;0;0
  418;C;shntfix_46_1;410;0;1;2;138;LAY;10;1;1;0;0;10;0;0;0;0;525,0998;1163,98;0;0;0;V;1,05;0,95;0;0;0;0
  419;C;shntfix_48_1;410;0;1;2;138;LAY;15;1;1;0;0;15;0;0;0;0;787,6497;1163,98;0;0;0;V;1,05;0,95;0;0;0;0
  420;C;shntfix_5_1;410;0;1;1;138;LAY;0;1;1;0;40;40;0;0;0;0;49,4854;476,1;0;0;0;V;1,05;0,95;0;0;0;0
  421;C;shntfix_74_1;410;0;1;2;138;LAY;12;1;1;0;0;12;0;0;0;0;630,1198;1163,98;0;0;0;V;1,05;0,95;0;0;0;0
  422;C;shntfix_79_1;410;0;1;2;138;LAY;20;1;1;0;0;20;0;0;0;0;1050,2;1163,98;0;0;0;V;1,05;0,95;0;0;0;0
  423;C;shntfix_82_1;410;0;1;2;138;LAY;20;1;1;0;0;20;0;0;0;0;1050,2;1163,98;0;0;0;V;1,05;0,95;0;0;0;0
  424;C;shntfix_83_1;410;0;1;2;138;LAY;10;1;1;0;0;10;0;0;0;0;525,0998;1163,98;0;0;0;V;1,05;0,95;0;0;0;0


$$ElmSym;FID(a:40);OP(a:1);loc_name(a:80);fold_id(p);typ_id(p);cCategory(a);ngnum(i);i_mot(i);pgini(r);qgini(r);cosgini(r);usetp(r);pf_recap(i);q_min(r);q_max(r);outserv(i);av_mode(a);phtech(i);ip_ctrl(i)
  425;C;sym_100_1;410;1799;Others;1;0;252;110,058;0,916413;1,017;0;-0,5;1,55;0;constv;1;0
  426;C;sym_103_1;410;1800;Others;1;0;40;40;0,707106;1,01;0;-0,15;0,4;0;constv;1;0
  427;C;sym_104_1;410;1801;Others;1;0;0;5,643;0;0,971;0;-0,08;0,23;0;constv;1;0
  428;C;sym_105_1;410;1802;Others;1;0;0;-8;0;0,965;1;-0,08;0,23;0;constv;1;0
  429;C;sym_107_1;410;1803;Others;1;0;0;5,694;0;0,952;0;-2;2;0;constv;1;0
  430;C;sym_10_1;410;1804;Others;1;0;450;-51,042;0,993628;1,05;1;-1,47;2;0;constv;1;0
  431;C;sym_110_1;410;1805;Others;1;0;0;4,854;0;0,973;0;-0,08;0,23;0;constv;1;0
  432;C;sym_111_1;410;1806;Others;1;0;36;-1,844;0,998690;0,98;1;-1;10;0;constv;1;0
  433;C;sym_112_1;410;1807;Others;1;0;0;41,512;0;0,975;0;-1;10;0;constv;1;0
  434;C;sym_113_1;410;1808;Others;1;0;0;6,323;0;0,993;0;-1;2;0;constv;1;0
  435;C;sym_116_1;410;1809;Others;1;0;0;51,324;0;1,005;0;-10;10;0;constv;1;0
  436;C;sym_12_1;410;1810;Others;1;0;85;91,274;0,681507;0,99;0;-0,35;1,2;0;constv;1;0
  437;C;sym_15_1;410;1811;Others;1;0;0;3,06;0;0,97;0;-0,1;0,3;0;constv;1;0
  438;C;sym_18_1;410;1812;Others;1;0;0;25,532;0;0,973;0;-0,16;0,5;0;constv;1;0
  439;C;sym_19_1;410;1813;Others;1;0;0;-8;0;0,962;1;-0,08;0,24;0;constv;1;0
  440;C;sym_1_1;410;1814;Others;1;0;0;-3,104;0;0,955;1;-0,05;0,15;0;constv;1;0
  441;C;sym_24_1;410;1815;Others;1;0;0;-15,282;0;0,992;1;-3;3;0;constv;1;0
  442;C;sym_25_1;410;1816;Others;1;0;220;49,798;0,975326;1,05;0;-0,47;1,4;0;constv;1;0
  443;C;sym_26_1;410;1817;Others;1;0;314;9,905;0,999502;1,015;0;-10;10;0;constv;1;0
  444;C;sym_27_1;410;1818;Others;1;0;0;2,831;0;0,968;0;-3;3;0;constv;1;0
  445;C;sym_31_1;410;1819;Others;1;0;7;31,976;0,213849;0,967;0;-3;3;0;constv;1;0
  446;C;sym_32_1;410;1820;Others;1;0;0;-14;0;0,963;1;-0,14;0,42;0;constv;1;0
  447;C;sym_34_1;410;1821;Others;1;0;0;-8;0;0,984;1;-0,08;0,24;0;constv;1;0
  448;C;sym_36_1;410;1822;Others;1;0;0;-1,252;0;0,98;1;-0,08;0,24;0;constv;1;0
  449;C;sym_40_1;410;1823;Others;1;0;0;26,886;0;0,97;0;-3;3;0;constv;1;0
  450;C;sym_42_1;410;1824;Others;1;0;0;41,004;0;0,985;0;-3;3;0;constv;1;0
  451;C;sym_46_1;410;1825;Others;1;0;19;-5,231;0,964127;1,005;1;-1;1;0;constv;1;0
  452;C;sym_49_1;410;1826;Others;1;0;204;115,647;0,869936;1,025;0;-0,85;2,1;0;constv;1;0
  453;C;sym_4_1;410;1827;Others;1;0;0;-15,005;0;0,998;1;-3;3;0;constv;1;0
  454;C;sym_54_1;410;1828;Others;1;0;48;3,902;0,996712;0,955;0;-3;3;0;constv;1;0
  455;C;sym_55_1;410;1829;Others;1;0;0;4,664;0;0,952;0;-0,08;0,23;0;constv;1;0
  456;C;sym_56_1;410;1830;Others;1;0;0;-2,286;0;0,954;1;-0,08;0,15;0;constv;1;0
  457;C;sym_59_1;410;1831;Others;1;0;155;76,834;0,895961;0,985;0;-0,6;1,8;0;constv;1;0
  458;C;sym_61_1;410;1832;Others;1;0;160;-40,394;0,969578;0,995;1;-1;3;0;constv;1;0
  459;C;sym_62_1;410;1833;Others;1;0;0;1,259;0;0,998;0;-0,2;0,2;0;constv;1;0
  460;C;sym_65_1;410;1834;Others;1;0;391;80,812;0,979302;1,005;0;-0,67;2;0;constv;1;0
  461;C;sym_66_1;410;1835;Others;1;0;392;-1,951;0,999987;1,05;1;-0,67;2;0;constv;1;0
  462;C;sym_69_1;410;1836;Others;1;0;513,388;-82,378;0,987369;1,035;1;-3;3;0;constv;1;1
  463;C;sym_6_1;410;1837;Others;1;0;0;15,93;0;0,99;0;-0,13;0,5;0;constv;1;0
  464;C;sym_70_1;410;1838;Others;1;0;0;9,664;0;0,984;0;-0,1;0,32;0;constv;1;0
  465;C;sym_72_1;410;1839;Others;1;0;0;-11,13;0;0,98;1;-1;1;0;constv;1;0
  466;C;sym_73_1;410;1840;Others;1;0;0;9,651;0;0,991;0;-1;1;0;constv;1;0
  467;C;sym_74_1;410;1841;Others;1;0;0;-5,628;0;0,958;1;-0,06;0,09;0;constv;1;0
  468;C;sym_76_1;410;1842;Others;1;0;0;5,269;0;0,943;0;-0,08;0,23;0;constv;1;0
  469;C;sym_77_1;410;1843;Others;1;0;0;11,943;0;1,006;0;-0,2;0,7;0;constv;1;0
  470;C;sym_80_1;410;1844;Others;1;0;477;105,05;0,976597;1,04;0;-1,65;2,8;0;constv;1;0
  471;C;sym_85_1;410;1845;Others;1;0;0;-5,768;0;0,985;1;-0,08;0,23;0;constv;1;0
  472;C;sym_87_1;410;1846;Others;1;0;4;11,022;0,341140;1,015;0;-1;10;0;constv;1;0
  473;C;sym_89_1;410;1847;Others;1;0;607;-11,794;0,999811;1,005;1;-2,1;3;0;constv;1;0
  474;C;sym_8_1;410;1848;Others;1;0;0;62,758;0;1,015;0;-3;3;0;constv;1;0
  475;C;sym_90_1;410;1849;Others;1;0;0;59,3;0;0,985;0;-3;3;0;constv;1;0
  476;C;sym_91_1;410;1850;Others;1;0;0;-14,847;0;0,98;1;-1;1;0;constv;1;0
  477;C;sym_92_1;410;1851;Others;1;0;0;-3;0;0,99;1;-0,03;0,09;0;constv;1;0
  478;C;sym_99_1;410;1852;Others;1;0;0;-17,537;0;1,01;1;-1;1;0;constv;1;0


$$ElmTerm;FID(a:40);OP(a:1);loc_name(a:80);fold_id(p);typ_id(p);systype(i);iUsage(i);uknom(r);unknom(r);iminus(i);outserv(i);GPSlat(r);GPSlon(r);vtarget(r)
  ElmTerm_1;C;1 RIVERSDE;410;;0;0;138;79,67434;0;0;0;0;1
  ElmTerm_2;C;2 POKAGON;410;;0;0;138;79,67434;0;0;0;0;1
  ElmTerm_3;C;3 HICKRYCK;410;;0;0;138;79,67434;0;0;0;0;1
  ElmTerm_4;C;4 NWCARLSL;410;;0;0;138;79,67434;0;0;0;0;1
  ElmTerm_5;C;5 OLIVE;410;;0;0;138;79,67434;0;0;0;0;1
  ElmTerm_6;C;6 KANKAKEE;410;;0;0;138;79,67434;0;0;0;0;1
  ElmTerm_7;C;7 JACKSNRD;410;;0;0;138;79,67434;0;0;0;0;1
  ElmTerm_8;C;8 OLIVE;410;;0;0;138;79,67434;0;0;0;0;1
  ElmTerm_9;C;9 BEQUINE;410;;0;0;138;79,67434;0;0;0;0;1
  ElmTerm_10;C;10 BREED;410;;0;0;138;79,67434;0;0;0;0;1
  ElmTerm_11;C;11 SOUTHBND;410;;0;0;138;79,67434;0;0;0;0;1
  ElmTerm_12;C;12 TWINBRCH;410;;0;0;138;79,67434;0;0;0;0;1
  ElmTerm_13;C;13 CONCORD;410;;0;0;138;79,67434;0;0;0;0;1
  ElmTerm_14;C;14 GOSHENJT;410;;0;0;138;79,67434;0;0;0;0;1
  ElmTerm_15;C;15 FTWAYNE;410;;0;0;138;79,67434;0;0;0;0;1
  ElmTerm_16;C;16 N. E.;410;;0;0;138;79,67434;0;0;0;0;1
  ElmTerm_17;C;17 SORENSON;410;;0;0;138;79,67434;0;0;0;0;1
  ElmTerm_18;C;18 MCKINLEY;410;;0;0;138;79,67434;0;0;0;0;1
  ElmTerm_19;C;19 LINCOLN;410;;0;0;138;79,67434;0;0;0;0;1
  ElmTerm_20;C;20 ADAMS;410;;0;0;138;79,67434;0;0;0;0;1
  ElmTerm_21;C;21 JAY;410;;0;0;138;79,67434;0;0;0;0;1
  ElmTerm_22;C;22 RANDOLPH;410;;0;0;138;79,67434;0;0;0;0;1
  ElmTerm_23;C;23 COLLCRNR;410;;0;0;138;79,67434;0;0;0;0;1
  ElmTerm_24;C;24 TRENTON;410;;0;0;138;79,67434;0;0;0;0;1
  ElmTerm_25;C;25 TANNRSCK;410;;0;0;138;79,67434;0;0;0;0;1
  ElmTerm_26;C;26 TANNRSCK;410;;0;0;138;79,67434;0;0;0;0;1
  ElmTerm_27;C;27 MADISON;410;;0;0;138;79,67434;0;0;0;0;1
  ElmTerm_28;C;28 MULLIN;410;;0;0;138;79,67434;0;0;0;0;1
  ElmTerm_29;C;29 GRANT;410;;0;0;138;79,67434;0;0;0;0;1
  ElmTerm_30;C;30 SORENSON;410;;0;0;138;79,67434;0;0;0;0;1
  ElmTerm_31;C;31 DEERCRK;410;;0;0;138;79,67434;0;0;0;0;1
  ElmTerm_32;C;32 DELAWARE;410;;0;0;138;79,67434;0;0;0;0;1
  ElmTerm_33;C;33 HAVILAND;410;;0;0;138;79,67434;0;0;0;0;1
  ElmTerm_34;C;34 ROCKHILL;410;;0;0;138;79,67434;0;0;0;0;1
  ElmTerm_35;C;35 WESTLIMA;410;;0;0;138;79,67434;0;0;0;0;1
  ElmTerm_36;C;36 STERLING;410;;0;0;138;79,67434;0;0;0;0;1
  ElmTerm_37;C;37 EASTLIMA;410;;0;0;138;79,67434;0;0;0;0;1
  ElmTerm_38;C;38 EASTLIMA;410;;0;0;138;79,67434;0;0;0;0;1
  ElmTerm_39;C;39 NWLIBRTY;410;;0;0;138;79,67434;0;0;0;0;1
  ElmTerm_40;C;40 WEST END;410;;0;0;138;79,67434;0;0;0;0;1
  ElmTerm_41;C;41 S.TIFFIN;410;;0;0;138;79,67434;0;0;0;0;1
  ElmTerm_42;C;42 HOWARD;410;;0;0;138;79,67434;0;0;0;0;1
  ElmTerm_43;C;43 S.KENTON;410;;0;0;138;79,67434;0;0;0;0;1
  ElmTerm_44;C;44 WMVERNON;410;;0;0;138;79,67434;0;0;0;0;1
  ElmTerm_45;C;45 N.NEWARK;410;;0;0;138;79,67434;0;0;0;0;1
  ElmTerm_46;C;46 W.LANCST;410;;0;0;138;79,67434;0;0;0;0;1
  ElmTerm_47;C;47 CROOKSVL;410;;0;0;138;79,67434;0;0;0;0;1
  ElmTerm_48;C;48 ZANESVLL;410;;0;0;138;79,67434;0;0;0;0;1
  ElmTerm_49;C;49 PHILO;410;;0;0;138;79,67434;0;0;0;0;1
  ElmTerm_50;C;50 WCAMBRDG;410;;0;0;138;79,67434;0;0;0;0;1
  ElmTerm_51;C;51 NEWCMRST;410;;0;0;138;79,67434;0;0;0;0;1
  ElmTerm_52;C;52 SCOSHOCT;410;;0;0;138;79,67434;0;0;0;0;1
  ElmTerm_53;C;53 WOOSTER;410;;0;0;138;79,67434;0;0;0;0;1
  ElmTerm_54;C;54 TORREY;410;;0;0;138;79,67434;0;0;0;0;1
  ElmTerm_55;C;55 WAGENHLS;410;;0;0;138;79,67434;0;0;0;0;1
  ElmTerm_56;C;56 SUNNYSDE;410;;0;0;138;79,67434;0;0;0;0;1
  ElmTerm_57;C;57 WNWPHIL1;410;;0;0;138;79,67434;0;0;0;0;1
  ElmTerm_58;C;58 WNWPHIL2;410;;0;0;138;79,67434;0;0;0;0;1
  ElmTerm_59;C;59 TIDD;410;;0;0;138;79,67434;0;0;0;0;1
  ElmTerm_60;C;60 SWKAMMER;410;;0;0;138;79,67434;0;0;0;0;1
  ElmTerm_61;C;61 W.KAMMER;410;;0;0;138;79,67434;0;0;0;0;1
  ElmTerm_62;C;62 NATRIUM;410;;0;0;138;79,67434;0;0;0;0;1
  ElmTerm_63;C;63 TIDD;410;;0;0;138;79,67434;0;0;0;0;1
  ElmTerm_64;C;64 KAMMER;410;;0;0;138;79,67434;0;0;0;0;1
  ElmTerm_65;C;65 MUSKNGUM;410;;0;0;138;79,67434;0;0;0;0;1
  ElmTerm_66;C;66 MUSKNGUM;410;;0;0;138;79,67434;0;0;0;0;1
  ElmTerm_67;C;67 SUMMERFL;410;;0;0;138;79,67434;0;0;0;0;1
  ElmTerm_68;C;68 SPORN;410;;0;0;138;79,67434;0;0;0;0;1
  ElmTerm_69;C;69 SPORN;410;;0;0;138;79,67434;0;0;0;0;1
  ElmTerm_70;C;70 PORTSMTH;410;;0;0;138;79,67434;0;0;0;0;1
  ElmTerm_71;C;71 NPORTSMT;410;;0;0;138;79,67434;0;0;0;0;1
  ElmTerm_72;C;72 HILLSBRO;410;;0;0;138;79,67434;0;0;0;0;1
  ElmTerm_73;C;73 SARGENTS;410;;0;0;138;79,67434;0;0;0;0;1
  ElmTerm_74;C;74 BELLEFNT;410;;0;0;138;79,67434;0;0;0;0;1
  ElmTerm_75;C;75 STHPOINT;410;;0;0;138;79,67434;0;0;0;0;1
  ElmTerm_76;C;76 DARRAH;410;;0;0;138;79,67434;0;0;0;0;1
  ElmTerm_77;C;77 TURNER;410;;0;0;138;79,67434;0;0;0;0;1
  ElmTerm_78;C;78 CHEMICAL;410;;0;0;138;79,67434;0;0;0;0;1
  ElmTerm_79;C;79 CAPITLHL;410;;0;0;138;79,67434;0;0;0;0;1
  ElmTerm_80;C;80 CABINCRK;410;;0;0;138;79,67434;0;0;0;0;1
  ElmTerm_81;C;81 KANAWHA;410;;0;0;138;79,67434;0;0;0;0;1
  ElmTerm_82;C;82 LOGAN;410;;0;0;138;79,67434;0;0;0;0;1
  ElmTerm_83;C;83 SPRIGG;410;;0;0;138;79,67434;0;0;0;0;1
  ElmTerm_84;C;84 BETSYLNE;410;;0;0;138;79,67434;0;0;0;0;1
  ElmTerm_85;C;85 BEAVERCK;410;;0;0;138;79,67434;0;0;0;0;1
  ElmTerm_86;C;86 HAZARD;410;;0;0;138;79,67434;0;0;0;0;1
  ElmTerm_87;C;87 PINEVLLE;410;;0;0;138;79,67434;0;0;0;0;1
  ElmTerm_88;C;88 FREMONT;410;;0;0;138;79,67434;0;0;0;0;1
  ElmTerm_89;C;89 CLINCHRV;410;;0;0;138;79,67434;0;0;0;0;1
  ElmTerm_90;C;90 HOLSTON;410;;0;0;138;79,67434;0;0;0;0;1
  ElmTerm_91;C;91 HOLSTONT;410;;0;0;138;79,67434;0;0;0;0;1
  ElmTerm_92;C;92 SALTVLLE;410;;0;0;138;79,67434;0;0;0;0;1
  ElmTerm_93;C;93 TAZEWELL;410;;0;0;138;79,67434;0;0;0;0;1
  ElmTerm_94;C;94 SWITCHBK;410;;0;0;138;79,67434;0;0;0;0;1
  ElmTerm_95;C;95 CALDWELL;410;;0;0;138;79,67434;0;0;0;0;1
  ElmTerm_96;C;96 BAILEYSV;410;;0;0;138;79,67434;0;0;0;0;1
  ElmTerm_97;C;97 SUNDIAL;410;;0;0;138;79,67434;0;0;0;0;1
  ElmTerm_98;C;98 BRADLEY;410;;0;0;138;79,67434;0;0;0;0;1
  ElmTerm_99;C;99 HINTON;410;;0;0;138;79,67434;0;0;0;0;1
  ElmTerm_100;C;100 GLEN LYN;410;;0;0;138;79,67434;0;0;0;0;1
  ElmTerm_101;C;101 WYTHE;410;;0;0;138;79,67434;0;0;0;0;1
  ElmTerm_102;C;102 SMYTHE;410;;0;0;138;79,67434;0;0;0;0;1
  ElmTerm_103;C;103 CLAYTOR;410;;0;0;138;79,67434;0;0;0;0;1
  ElmTerm_104;C;104 HANCOCK;410;;0;0;138;79,67434;0;0;0;0;1
  ElmTerm_105;C;105 ROANOKE;410;;0;0;138;79,67434;0;0;0;0;1
  ElmTerm_106;C;106 CLOVERDL;410;;0;0;138;79,67434;0;0;0;0;1
  ElmTerm_107;C;107 REUSENS;410;;0;0;138;79,67434;0;0;0;0;1
  ElmTerm_108;C;108 BLAINE;410;;0;0;138;79,67434;0;0;0;0;1
  ElmTerm_109;C;109 FRANKLIN;410;;0;0;138;79,67434;0;0;0;0;1
  ElmTerm_110;C;110 FIELDALE;410;;0;0;138;79,67434;0;0;0;0;1
  ElmTerm_111;C;111 DANRIVER;410;;0;0;138;79,67434;0;0;0;0;1
  ElmTerm_112;C;112 DANVILLE;410;;0;0;138;79,67434;0;0;0;0;1
  ElmTerm_113;C;113 DEER CRK;410;;0;0;138;79,67434;0;0;0;0;1
  ElmTerm_114;C;114 WMEDFORD;410;;0;0;138;79,67434;0;0;0;0;1
  ElmTerm_115;C;115 MEDFORD;410;;0;0;138;79,67434;0;0;0;0;1
  ElmTerm_116;C;116 KYGERCRK;410;;0;0;138;79,67434;0;0;0;0;1
  ElmTerm_117;C;117 COREY;410;;0;0;138;79,67434;0;0;0;0;1
  ElmTerm_118;C;118 WHUNTNGD;410;;0;0;138;79,67434;0;0;0;0;1


$$ElmTr2;FID(a:40);OP(a:1);loc_name(a:80);fold_id(p);typ_id(p);ntnum(i);outserv(i);nntap(i);i_auto(i);ntrcn(i);usetp(r);usp_low(r);usp_up(r);t2ldc(i)
  ElmTr2_26_25_1;C;trf_26_25_1;410;1853;1;0;-1;0;0;1;0,99;1,01;0
  ElmTr2_30_17_1;C;trf_30_17_1;410;1854;1;0;-1;0;0;1;0,99;1,01;0
  ElmTr2_38_37_1;C;trf_38_37_1;410;1855;1;0;-1;0;0;1;0,99;1,01;0
  ElmTr2_63_59_1;C;trf_63_59_1;410;1856;1;0;-1;0;0;1;0,99;1,01;0
  ElmTr2_64_61_1;C;trf_64_61_1;410;1857;1;0;-1;0;0;1;0,99;1,01;0
  ElmTr2_65_66_1;C;trf_65_66_1;410;1858;1;0;-1;0;0;1;0,99;1,01;0
  ElmTr2_68_69_1;C;trf_68_69_1;410;1859;1;0;-1;0;0;1;0,99;1,01;0
  ElmTr2_81_80_1;C;trf_81_80_1;410;1860;1;0;-1;0;0;1;0,99;1,01;0
  ElmTr2_8_5_1;C;trf_8_5_1;410;1861;1;0;-1;0;0;1;0,99;1,01;0


$$ElmZone;FID(a:40);OP(a:1);loc_name(a:80);fold_id(p);icolor(i);curscale(r)
  479;C;1_IEEE 118;;1;1


$$StaCubic;FID(a:40);OP(a:1);loc_name(a:80);fold_id(p);obj_bus(i);obj_id(p);it2p1(i);it2p2(i);it2p3(i)
  480;C;lne_1_2_1;ElmTerm_1;0;275;0;1;2
  481;C;lne_1_3_1;ElmTerm_1;0;276;0;1;2
  482;C;lod_1_1;ElmTerm_1;0;ElmLod_1_1;0;1;2
  483;C;sym_1_1;ElmTerm_1;0;440;0;1;2
  484;C;lne_9_10_1;ElmTerm_10;1;409;0;1;2
  485;C;sym_10_1;ElmTerm_10;0;430;0;1;2
  486;C;lne_100_101_1;ElmTerm_100;0;240;0;1;2
  487;C;lne_100_103_1;ElmTerm_100;0;241;0;1;2
  488;C;lne_100_104_1;ElmTerm_100;0;242;0;1;2
  489;C;lne_100_106_1;ElmTerm_100;0;243;0;1;2
  490;C;lne_92_100_1;ElmTerm_100;1;397;0;1;2
  491;C;lne_94_100_1;ElmTerm_100;1;402;0;1;2
  492;C;lne_98_100_1;ElmTerm_100;1;407;0;1;2
  493;C;lne_99_100_1;ElmTerm_100;1;408;0;1;2
  494;C;lod_100_1;ElmTerm_100;0;ElmLod_100_1;0;1;2
  495;C;sym_100_1;ElmTerm_100;0;425;0;1;2
  496;C;lne_100_101_1;ElmTerm_101;1;240;0;1;2
  497;C;lne_101_102_1;ElmTerm_101;0;244;0;1;2
  498;C;lod_101_1;ElmTerm_101;0;ElmLod_101_1;0;1;2
  499;C;lne_101_102_1;ElmTerm_102;1;244;0;1;2
  500;C;lne_92_102_1;ElmTerm_102;1;398;0;1;2
  501;C;lod_102_1;ElmTerm_102;0;ElmLod_102_1;0;1;2
  502;C;lne_100_103_1;ElmTerm_103;1;241;0;1;2
  503;C;lne_103_104_1;ElmTerm_103;0;245;0;1;2
  504;C;lne_103_105_1;ElmTerm_103;0;246;0;1;2
  505;C;lne_103_110_1;ElmTerm_103;0;247;0;1;2
  506;C;lod_103_1;ElmTerm_103;0;ElmLod_103_1;0;1;2
  507;C;sym_103_1;ElmTerm_103;0;426;0;1;2
  508;C;lne_100_104_1;ElmTerm_104;1;242;0;1;2
  509;C;lne_103_104_1;ElmTerm_104;1;245;0;1;2
  510;C;lne_104_105_1;ElmTerm_104;0;248;0;1;2
  511;C;lod_104_1;ElmTerm_104;0;ElmLod_104_1;0;1;2
  512;C;sym_104_1;ElmTerm_104;0;427;0;1;2
  513;C;lne_103_105_1;ElmTerm_105;1;246;0;1;2
  514;C;lne_104_105_1;ElmTerm_105;1;248;0;1;2
  515;C;lne_105_106_1;ElmTerm_105;0;249;0;1;2
  516;C;lne_105_107_1;ElmTerm_105;0;250;0;1;2
  517;C;lne_105_108_1;ElmTerm_105;0;251;0;1;2
  518;C;lod_105_1;ElmTerm_105;0;ElmLod_105_1;0;1;2
  519;C;shntfix_105_1;ElmTerm_105;0;411;0;1;2
  520;C;sym_105_1;ElmTerm_105;0;428;0;1;2
  521;C;lne_100_106_1;ElmTerm_106;1;243;0;1;2
  522;C;lne_105_106_1;ElmTerm_106;1;249;0;1;2
  523;C;lne_106_107_1;ElmTerm_106;0;252;0;1;2
  524;C;lod_106_1;ElmTerm_106;0;ElmLod_106_1;0;1;2
  525;C;lne_105_107_1;ElmTerm_107;1;250;0;1;2
  526;C;lne_106_107_1;ElmTerm_107;1;252;0;1;2
  527;C;lod_107_1;ElmTerm_107;0;ElmLod_107_1;0;1;2
  528;C;shntfix_107_1;ElmTerm_107;0;412;0;1;2
  529;C;sym_107_1;ElmTerm_107;0;429;0;1;2
  530;C;lne_105_108_1;ElmTerm_108;1;251;0;1;2
  531;C;lne_108_109_1;ElmTerm_108;0;253;0;1;2
  532;C;lod_108_1;ElmTerm_108;0;ElmLod_108_1;0;1;2
  533;C;lne_108_109_1;ElmTerm_109;1;253;0;1;2
  534;C;lne_109_110_1;ElmTerm_109;0;254;0;1;2
  535;C;lod_109_1;ElmTerm_109;0;ElmLod_109_1;0;1;2
  536;C;lne_11_12_1;ElmTerm_11;0;258;0;1;2
  537;C;lne_11_13_1;ElmTerm_11;0;259;0;1;2
  538;C;lne_4_11_1;ElmTerm_11;1;327;0;1;2
  539;C;lne_5_11_1;ElmTerm_11;1;344;0;1;2
  540;C;lod_11_1;ElmTerm_11;0;ElmLod_11_1;0;1;2
  541;C;lne_103_110_1;ElmTerm_110;1;247;0;1;2
  542;C;lne_109_110_1;ElmTerm_110;1;254;0;1;2
  543;C;lne_110_111_1;ElmTerm_110;0;255;0;1;2
  544;C;lne_110_112_1;ElmTerm_110;0;256;0;1;2
  545;C;lod_110_1;ElmTerm_110;0;ElmLod_110_1;0;1;2
  546;C;shntfix_110_1;ElmTerm_110;0;413;0;1;2
  547;C;sym_110_1;ElmTerm_110;0;431;0;1;2
  548;C;lne_110_111_1;ElmTerm_111;1;255;0;1;2
  549;C;sym_111_1;ElmTerm_111;0;432;0;1;2
  550;C;lne_110_112_1;ElmTerm_112;1;256;0;1;2
  551;C;lod_112_1;ElmTerm_112;0;ElmLod_112_1;0;1;2
  552;C;sym_112_1;ElmTerm_112;0;433;0;1;2
  553;C;lne_17_113_1;ElmTerm_113;1;269;0;1;2
  554;C;lne_32_113_1;ElmTerm_113;1;295;0;1;2
  555;C;lod_113_1;ElmTerm_113;0;ElmLod_113_1;0;1;2
  556;C;sym_113_1;ElmTerm_113;0;434;0;1;2
  557;C;lne_114_115_1;ElmTerm_114;0;257;0;1;2
  558;C;lne_32_114_1;ElmTerm_114;1;296;0;1;2
  559;C;lod_114_1;ElmTerm_114;0;ElmLod_114_1;0;1;2
  560;C;lne_114_115_1;ElmTerm_115;1;257;0;1;2
  561;C;lne_27_115_1;ElmTerm_115;1;287;0;1;2
  562;C;lod_115_1;ElmTerm_115;0;ElmLod_115_1;0;1;2
  563;C;lne_68_116_1;ElmTerm_116;1;355;0;1;2
  564;C;lod_116_1;ElmTerm_116;0;ElmLod_116_1;0;1;2
  565;C;sym_116_1;ElmTerm_116;0;435;0;1;2
  566;C;lne_12_117_1;ElmTerm_117;1;260;0;1;2
  567;C;lod_117_1;ElmTerm_117;0;ElmLod_117_1;0;1;2
  568;C;lne_75_118_1;ElmTerm_118;1;367;0;1;2
  569;C;lne_76_118_1;ElmTerm_118;1;369;0;1;2
  570;C;lod_118_1;ElmTerm_118;0;ElmLod_118_1;0;1;2
  571;C;lne_11_12_1;ElmTerm_12;1;258;0;1;2
  572;C;lne_12_117_1;ElmTerm_12;0;260;0;1;2
  573;C;lne_12_14_1;ElmTerm_12;0;261;0;1;2
  574;C;lne_12_16_1;ElmTerm_12;0;262;0;1;2
  575;C;lne_2_12_1;ElmTerm_12;1;292;0;1;2
  576;C;lne_3_12_1;ElmTerm_12;1;307;0;1;2
  577;C;lne_7_12_1;ElmTerm_12;1;376;0;1;2
  578;C;lod_12_1;ElmTerm_12;0;ElmLod_12_1;0;1;2
  579;C;sym_12_1;ElmTerm_12;0;436;0;1;2
  580;C;lne_11_13_1;ElmTerm_13;1;259;0;1;2
  581;C;lne_13_15_1;ElmTerm_13;0;263;0;1;2
  582;C;lod_13_1;ElmTerm_13;0;ElmLod_13_1;0;1;2
  583;C;lne_12_14_1;ElmTerm_14;1;261;0;1;2
  584;C;lne_14_15_1;ElmTerm_14;0;264;0;1;2
  585;C;lod_14_1;ElmTerm_14;0;ElmLod_14_1;0;1;2
  586;C;lne_13_15_1;ElmTerm_15;1;263;0;1;2
  587;C;lne_14_15_1;ElmTerm_15;1;264;0;1;2
  588;C;lne_15_17_1;ElmTerm_15;0;265;0;1;2
  589;C;lne_15_19_1;ElmTerm_15;0;266;0;1;2
  590;C;lne_15_33_1;ElmTerm_15;0;267;0;1;2
  591;C;lod_15_1;ElmTerm_15;0;ElmLod_15_1;0;1;2
  592;C;sym_15_1;ElmTerm_15;0;437;0;1;2
  593;C;lne_12_16_1;ElmTerm_16;1;262;0;1;2
  594;C;lne_16_17_1;ElmTerm_16;0;268;0;1;2
  595;C;lod_16_1;ElmTerm_16;0;ElmLod_16_1;0;1;2
  596;C;lne_15_17_1;ElmTerm_17;1;265;0;1;2
  597;C;lne_16_17_1;ElmTerm_17;1;268;0;1;2
  598;C;lne_17_113_1;ElmTerm_17;0;269;0;1;2
  599;C;lne_17_18_1;ElmTerm_17;0;270;0;1;2
  600;C;lne_17_31_1;ElmTerm_17;0;271;0;1;2
  601;C;lod_17_1;ElmTerm_17;0;ElmLod_17_1;0;1;2
  602;C;trf_30_17_1;ElmTerm_17;1;ElmTr2_30_17_1;0;1;2
  603;C;lne_17_18_1;ElmTerm_18;1;270;0;1;2
  604;C;lne_18_19_1;ElmTerm_18;0;272;0;1;2
  605;C;lod_18_1;ElmTerm_18;0;ElmLod_18_1;0;1;2
  606;C;sym_18_1;ElmTerm_18;0;438;0;1;2
  607;C;lne_15_19_1;ElmTerm_19;1;266;0;1;2
  608;C;lne_18_19_1;ElmTerm_19;1;272;0;1;2
  609;C;lne_19_20_1;ElmTerm_19;0;273;0;1;2
  610;C;lne_19_34_1;ElmTerm_19;0;274;0;1;2
  611;C;lod_19_1;ElmTerm_19;0;ElmLod_19_1;0;1;2
  612;C;sym_19_1;ElmTerm_19;0;439;0;1;2
  613;C;lne_1_2_1;ElmTerm_2;1;275;0;1;2
  614;C;lne_2_12_1;ElmTerm_2;0;292;0;1;2
  615;C;lod_2_1;ElmTerm_2;0;ElmLod_2_1;0;1;2
  616;C;lne_19_20_1;ElmTerm_20;1;273;0;1;2
  617;C;lne_20_21_1;ElmTerm_20;0;277;0;1;2
  618;C;lod_20_1;ElmTerm_20;0;ElmLod_20_1;0;1;2
  619;C;lne_20_21_1;ElmTerm_21;1;277;0;1;2
  620;C;lne_21_22_1;ElmTerm_21;0;278;0;1;2
  621;C;lod_21_1;ElmTerm_21;0;ElmLod_21_1;0;1;2
  622;C;lne_21_22_1;ElmTerm_22;1;278;0;1;2
  623;C;lne_22_23_1;ElmTerm_22;0;279;0;1;2
  624;C;lod_22_1;ElmTerm_22;0;ElmLod_22_1;0;1;2
  625;C;lne_22_23_1;ElmTerm_23;1;279;0;1;2
  626;C;lne_23_24_1;ElmTerm_23;0;280;0;1;2
  627;C;lne_23_25_1;ElmTerm_23;0;281;0;1;2
  628;C;lne_23_32_1;ElmTerm_23;0;282;0;1;2
  629;C;lod_23_1;ElmTerm_23;0;ElmLod_23_1;0;1;2
  630;C;lne_23_24_1;ElmTerm_24;1;280;0;1;2
  631;C;lne_24_70_1;ElmTerm_24;0;283;0;1;2
  632;C;lne_24_72_1;ElmTerm_24;0;284;0;1;2
  633;C;lod_24_1;ElmTerm_24;0;ElmLod_24_1;0;1;2
  634;C;sym_24_1;ElmTerm_24;0;441;0;1;2
  635;C;lne_23_25_1;ElmTerm_25;1;281;0;1;2
  636;C;lne_25_27_1;ElmTerm_25;0;285;0;1;2
  637;C;sym_25_1;ElmTerm_25;0;442;0;1;2
  638;C;trf_26_25_1;ElmTerm_25;1;ElmTr2_26_25_1;0;1;2
  639;C;lne_26_30_1;ElmTerm_26;0;286;0;1;2
  640;C;sym_26_1;ElmTerm_26;0;443;0;1;2
  641;C;trf_26_25_1;ElmTerm_26;0;ElmTr2_26_25_1;0;1;2
  642;C;lne_25_27_1;ElmTerm_27;1;285;0;1;2
  643;C;lne_27_115_1;ElmTerm_27;0;287;0;1;2
  644;C;lne_27_28_1;ElmTerm_27;0;288;0;1;2
  645;C;lne_27_32_1;ElmTerm_27;0;289;0;1;2
  646;C;lod_27_1;ElmTerm_27;0;ElmLod_27_1;0;1;2
  647;C;sym_27_1;ElmTerm_27;0;444;0;1;2
  648;C;lne_27_28_1;ElmTerm_28;1;288;0;1;2
  649;C;lne_28_29_1;ElmTerm_28;0;290;0;1;2
  650;C;lod_28_1;ElmTerm_28;0;ElmLod_28_1;0;1;2
  651;C;lne_28_29_1;ElmTerm_29;1;290;0;1;2
  652;C;lne_29_31_1;ElmTerm_29;0;291;0;1;2
  653;C;lod_29_1;ElmTerm_29;0;ElmLod_29_1;0;1;2
  654;C;lne_1_3_1;ElmTerm_3;1;276;0;1;2
  655;C;lne_3_12_1;ElmTerm_3;0;307;0;1;2
  656;C;lne_3_5_1;ElmTerm_3;0;308;0;1;2
  657;C;lod_3_1;ElmTerm_3;0;ElmLod_3_1;0;1;2
  658;C;lne_26_30_1;ElmTerm_30;1;286;0;1;2
  659;C;lne_30_38_1;ElmTerm_30;0;293;0;1;2
  660;C;lne_8_30_1;ElmTerm_30;1;393;0;1;2
  661;C;trf_30_17_1;ElmTerm_30;0;ElmTr2_30_17_1;0;1;2
  662;C;lne_17_31_1;ElmTerm_31;1;271;0;1;2
  663;C;lne_29_31_1;ElmTerm_31;1;291;0;1;2
  664;C;lne_31_32_1;ElmTerm_31;0;294;0;1;2
  665;C;lod_31_1;ElmTerm_31;0;ElmLod_31_1;0;1;2
  666;C;sym_31_1;ElmTerm_31;0;445;0;1;2
  667;C;lne_23_32_1;ElmTerm_32;1;282;0;1;2
  668;C;lne_27_32_1;ElmTerm_32;1;289;0;1;2
  669;C;lne_31_32_1;ElmTerm_32;1;294;0;1;2
  670;C;lne_32_113_1;ElmTerm_32;0;295;0;1;2
  671;C;lne_32_114_1;ElmTerm_32;0;296;0;1;2
  672;C;lod_32_1;ElmTerm_32;0;ElmLod_32_1;0;1;2
  673;C;sym_32_1;ElmTerm_32;0;446;0;1;2
  674;C;lne_15_33_1;ElmTerm_33;1;267;0;1;2
  675;C;lne_33_37_1;ElmTerm_33;0;297;0;1;2
  676;C;lod_33_1;ElmTerm_33;0;ElmLod_33_1;0;1;2
  677;C;lne_19_34_1;ElmTerm_34;1;274;0;1;2
  678;C;lne_34_36_1;ElmTerm_34;0;298;0;1;2
  679;C;lne_34_37_1;ElmTerm_34;0;299;0;1;2
...


$$StaSwitch;FID(a:40);OP(a:1);loc_name(a:80);fold_id(p);on_off(i);typ_id(p);aUsage(a)
  1005;C;Switch;480;1;;cbk
  1006;C;Switch;481;1;;cbk
  1007;C;Switch;482;1;;cbk
  1008;C;Switch;483;1;;cbk
  1009;C;Switch;484;1;;cbk
  1010;C;Switch;485;1;;cbk
  1011;C;Switch;486;1;;cbk
  1012;C;Switch;487;1;;cbk
  1013;C;Switch;488;1;;cbk
  1014;C;Switch;489;1;;cbk
  1015;C;Switch;490;1;;cbk
  1016;C;Switch;491;1;;cbk
  1017;C;Switch;492;1;;cbk
  1018;C;Switch;493;1;;cbk
  1019;C;Switch;494;1;;cbk
  1020;C;Switch;495;1;;cbk
  1021;C;Switch;496;1;;cbk
  1022;C;Switch;497;1;;cbk
  1023;C;Switch;498;1;;cbk
  1024;C;Switch;499;1;;cbk
  1025;C;Switch;500;1;;cbk
  1026;C;Switch;501;1;;cbk
  1027;C;Switch;502;1;;cbk
  1028;C;Switch;503;1;;cbk
  1029;C;Switch;504;1;;cbk
  1030;C;Switch;505;1;;cbk
  1031;C;Switch;506;1;;cbk
  1032;C;Switch;507;1;;cbk
  1033;C;Switch;508;1;;cbk
  1034;C;Switch;509;1;;cbk
  1035;C;Switch;510;1;;cbk
  1036;C;Switch;511;1;;cbk
  1037;C;Switch;512;1;;cbk
  1038;C;Switch;513;1;;cbk
  1039;C;Switch;514;1;;cbk
  1040;C;Switch;515;1;;cbk
  1041;C;Switch;516;1;;cbk
  1042;C;Switch;517;1;;cbk
  1043;C;Switch;518;1;;cbk
  1044;C;Switch;519;1;;cbk
  1045;C;Switch;520;1;;cbk
  1046;C;Switch;521;1;;cbk
  1047;C;Switch;522;1;;cbk
  1048;C;Switch;523;1;;cbk
  1049;C;Switch;524;1;;cbk
  1050;C;Switch;525;1;;cbk
  1051;C;Switch;526;1;;cbk
  1052;C;Switch;527;1;;cbk
  1053;C;Switch;528;1;;cbk
  1054;C;Switch;529;1;;cbk
  1055;C;Switch;530;1;;cbk
  1056;C;Switch;531;1;;cbk
  1057;C;Switch;532;1;;cbk
  1058;C;Switch;533;1;;cbk
  1059;C;Switch;534;1;;cbk
  1060;C;Switch;535;1;;cbk
  1061;C;Switch;536;1;;cbk
  1062;C;Switch;537;1;;cbk
  1063;C;Switch;538;1;;cbk
  1064;C;Switch;539;1;;cbk
  1065;C;Switch;540;1;;cbk
  1066;C;Switch;541;1;;cbk
  1067;C;Switch;542;1;;cbk
  1068;C;Switch;543;1;;cbk
  1069;C;Switch;544;1;;cbk
  1070;C;Switch;545;1;;cbk
  1071;C;Switch;546;1;;cbk
  1072;C;Switch;547;1;;cbk
  1073;C;Switch;548;1;;cbk
  1074;C;Switch;549;1;;cbk
  1075;C;Switch;550;1;;cbk
  1076;C;Switch;551;1;;cbk
  1077;C;Switch;552;1;;cbk
  1078;C;Switch;553;1;;cbk
  1079;C;Switch;554;1;;cbk
  1080;C;Switch;555;1;;cbk
  1081;C;Switch;556;1;;cbk
  1082;C;Switch;557;1;;cbk
  1083;C;Switch;558;1;;cbk
  1084;C;Switch;559;1;;cbk
  1085;C;Switch;560;1;;cbk
  1086;C;Switch;561;1;;cbk
  1087;C;Switch;562;1;;cbk
  1088;C;Switch;563;1;;cbk
  1089;C;Switch;564;1;;cbk
  1090;C;Switch;565;1;;cbk
  1091;C;Switch;566;1;;cbk
  1092;C;Switch;567;1;;cbk
  1093;C;Switch;568;1;;cbk
  1094;C;Switch;569;1;;cbk
  1095;C;Switch;570;1;;cbk
  1096;C;Switch;571;1;;cbk
  1097;C;Switch;572;1;;cbk
  1098;C;Switch;573;1;;cbk
  1099;C;Switch;574;1;;cbk
  1100;C;Switch;575;1;;cbk
  1101;C;Switch;576;1;;cbk
  1102;C;Switch;577;1;;cbk
  1103;C;Switch;578;1;;cbk
  1104;C;Switch;579;1;;cbk
  1105;C;Switch;580;1;;cbk
  1106;C;Switch;581;1;;cbk
  1107;C;Switch;582;1;;cbk
  1108;C;Switch;583;1;;cbk
  1109;C;Switch;584;1;;cbk
  1110;C;Switch;585;1;;cbk
  1111;C;Switch;586;1;;cbk
  1112;C;Switch;587;1;;cbk
  1113;C;Switch;588;1;;cbk
  1114;C;Switch;589;1;;cbk
  1115;C;Switch;590;1;;cbk
  1116;C;Switch;591;1;;cbk
  1117;C;Switch;592;1;;cbk
  1118;C;Switch;593;1;;cbk
  1119;C;Switch;594;1;;cbk
  1120;C;Switch;595;1;;cbk
  1121;C;Switch;596;1;;cbk
  1122;C;Switch;597;1;;cbk
  1123;C;Switch;598;1;;cbk
  1124;C;Switch;599;1;;cbk
  1125;C;Switch;600;1;;cbk
  1126;C;Switch;601;1;;cbk
  1127;C;Switch;602;1;;cbk
  1128;C;Switch;603;1;;cbk
  1129;C;Switch;604;1;;cbk
  1130;C;Switch;605;1;;cbk
  1131;C;Switch;606;1;;cbk
  1132;C;Switch;607;1;;cbk
  1133;C;Switch;608;1;;cbk
  1134;C;Switch;609;1;;cbk
  1135;C;Switch;610;1;;cbk
  1136;C;Switch;611;1;;cbk
  1137;C;Switch;612;1;;cbk
  1138;C;Switch;613;1;;cbk
  1139;C;Switch;614;1;;cbk
  1140;C;Switch;615;1;;cbk
  1141;C;Switch;616;1;;cbk
  1142;C;Switch;617;1;;cbk
  1143;C;Switch;618;1;;cbk
  1144;C;Switch;619;1;;cbk
  1145;C;Switch;620;1;;cbk
  1146;C;Switch;621;1;;cbk
  1147;C;Switch;622;1;;cbk
  1148;C;Switch;623;1;;cbk
  1149;C;Switch;624;1;;cbk
  1150;C;Switch;625;1;;cbk
  1151;C;Switch;626;1;;cbk
  1152;C;Switch;627;1;;cbk
  1153;C;Switch;628;1;;cbk
  1154;C;Switch;629;1;;cbk
  1155;C;Switch;630;1;;cbk
  1156;C;Switch;631;1;;cbk
  1157;C;Switch;632;1;;cbk
  1158;C;Switch;633;1;;cbk
  1159;C;Switch;634;1;;cbk
  1160;C;Switch;635;1;;cbk
  1161;C;Switch;636;1;;cbk
  1162;C;Switch;637;1;;cbk
  1163;C;Switch;638;1;;cbk
  1164;C;Switch;639;1;;cbk
  1165;C;Switch;640;1;;cbk
  1166;C;Switch;641;1;;cbk
  1167;C;Switch;642;1;;cbk
  1168;C;Switch;643;1;;cbk
  1169;C;Switch;644;1;;cbk
  1170;C;Switch;645;1;;cbk
  1171;C;Switch;646;1;;cbk
  1172;C;Switch;647;1;;cbk
  1173;C;Switch;648;1;;cbk
  1174;C;Switch;649;1;;cbk
  1175;C;Switch;650;1;;cbk
  1176;C;Switch;651;1;;cbk
  1177;C;Switch;652;1;;cbk
  1178;C;Switch;653;1;;cbk
  1179;C;Switch;654;1;;cbk
  1180;C;Switch;655;1;;cbk
  1181;C;Switch;656;1;;cbk
  1182;C;Switch;657;1;;cbk
  1183;C;Switch;658;1;;cbk
  1184;C;Switch;659;1;;cbk
  1185;C;Switch;660;1;;cbk
  1186;C;Switch;661;1;;cbk
  1187;C;Switch;662;1;;cbk
  1188;C;Switch;663;1;;cbk
  1189;C;Switch;664;1;;cbk
  1190;C;Switch;665;1;;cbk
  1191;C;Switch;666;1;;cbk
  1192;C;Switch;667;1;;cbk
  1193;C;Switch;668;1;;cbk
  1194;C;Switch;669;1;;cbk
  1195;C;Switch;670;1;;cbk
  1196;C;Switch;671;1;;cbk
  1197;C;Switch;672;1;;cbk
  1198;C;Switch;673;1;;cbk
  1199;C;Switch;674;1;;cbk
  1200;C;Switch;675;1;;cbk
  1201;C;Switch;676;1;;cbk
  1202;C;Switch;677;1;;cbk
  1203;C;Switch;678;1;;cbk
  1204;C;Switch;679;1;;cbk
...


$$TypLne;FID(a:40);OP(a:1);loc_name(a:80);fold_id(p);uline(r);sline(r);InomAir(r);cohl_(i);rline(r);xline(r);rline0(r);xline0(r);Ithr(r);tmax(r);rtemp(r);systp(i);nlnph(i);nneutral(i);frnom(r);mlei(a:4);bline(r);bline0(r)
  1530;C;tlne_100_101_1;410;138;99999;1;0;5,275188;24,03353;1e+08;1e+08;0;80;80;0;3;0;60;Cu;172,2327;0
  1531;C;tlne_100_103_1;410;138;99999;1;0;3,04704;9,9981;1e+08;1e+08;0;80;80;0;3;0;60;Cu;281,4535;0
  1532;C;tlne_100_104_1;410;138;99999;1;0;8,588844;38,84976;1e+08;1e+08;0;80;80;0;3;0;60;Cu;284,079;0
  1533;C;tlne_100_106_1;410;138;99999;1;0;11,52162;43,61076;1e+08;1e+08;0;80;80;0;3;0;60;Cu;325,5619;0
  1534;C;tlne_101_102_1;410;138;99999;1;0;4,684824;21,32928;1e+08;1e+08;0;80;80;0;3;0;60;Cu;154,3793;0
  1535;C;tlne_103_104_1;410;138;99999;1;0;8,874504;30,1657;1e+08;1e+08;0;80;80;0;3;0;60;Cu;213,7156;0
  1536;C;tlne_103_105_1;410;138;99999;1;0;10,18854;30,9465;1e+08;1e+08;0;80;80;0;3;0;60;Cu;214,2407;0
  1537;C;tlne_103_110_1;410;138;99999;1;0;7,438586;34,52677;1e+08;1e+08;0;80;80;0;3;0;60;Cu;242,071;0
  1538;C;tlne_104_105_1;410;138;99999;1;0;1,892974;7,198632;1e+08;1e+08;0;80;80;0;3;0;60;Cu;51,77484;0
  1539;C;tlne_105_106_1;410;138;99999;1;0;2,66616;10,41707;1e+08;1e+08;0;80;80;0;3;0;60;Cu;75,29931;0
  1540;C;tlne_105_107_1;410;138;99999;1;0;10,09332;34,85052;1e+08;1e+08;0;80;80;0;3;0;60;Cu;247,8471;0
  1541;C;tlne_105_108_1;410;138;99999;1;0;4,970484;13,38793;1e+08;1e+08;0;80;80;0;3;0;60;Cu;96,8284;0
  1542;C;tlne_106_107_1;410;138;99999;1;0;10,09332;34,85052;1e+08;1e+08;0;80;80;0;3;0;60;Cu;247,8471;0
  1543;C;tlne_108_109_1;410;138;99999;1;0;1,99962;5,484672;1e+08;1e+08;0;80;80;0;3;0;60;Cu;39,90758;0
  1544;C;tlne_109_110_1;410;138;99999;1;0;5,294232;14,51153;1e+08;1e+08;0;80;80;0;3;0;60;Cu;106,0702;0
  1545;C;tlne_110_111_1;410;138;99999;1;0;4,18968;14,37822;1e+08;1e+08;0;80;80;0;3;0;60;Cu;105,02;0
  1546;C;tlne_110_112_1;410;138;99999;1;0;4,703868;12,18816;1e+08;1e+08;0;80;80;0;3;0;60;Cu;325,5619;0
  1547;C;tlne_114_115_1;410;138;99999;1;0;0,438012;1,980576;1e+08;1e+08;0;80;80;0;3;0;60;Cu;14,49275;0
  1548;C;tlne_11_12_1;410;138;99999;1;0;1,133118;3,732624;1e+08;1e+08;0;80;80;0;3;0;60;Cu;26,36001;0
  1549;C;tlne_11_13_1;410;138;99999;1;0;4,23729;13,92116;1e+08;1e+08;0;80;80;0;3;0;60;Cu;98,50872;0
  1550;C;tlne_12_117_1;410;138;99999;1;0;6,265476;26,6616;1e+08;1e+08;0;80;80;0;3;0;60;Cu;187,9857;0
  1551;C;tlne_12_14_1;410;138;99999;1;0;4,09446;13,46411;1e+08;1e+08;0;80;80;0;3;0;60;Cu;95,35812;0
  1552;C;tlne_12_16_1;410;138;99999;1;0;4,037328;15,8827;1e+08;1e+08;0;80;80;0;3;0;60;Cu;112,3714;0
  1553;C;tlne_13_15_1;410;138;99999;1;0;14,16874;46,54354;1e+08;1e+08;0;80;80;0;3;0;60;Cu;329,1325;0
  1554;C;tlne_14_15_1;410;138;99999;1;0;11,33118;37,1358;1e+08;1e+08;0;80;80;0;3;0;60;Cu;263,6001;0
  1555;C;tlne_15_17_1;410;138;99999;1;0;2,513808;8,322228;1e+08;1e+08;0;80;80;0;3;0;60;Cu;233,1443;0
  1556;C;tlne_15_19_1;410;138;99999;1;0;2,28528;7,503336;1e+08;1e+08;0;80;80;0;3;0;60;Cu;53,03508;0
  1557;C;tlne_15_33_1;410;138;99999;1;0;7,23672;23,69074;1e+08;1e+08;0;80;80;0;3;0;60;Cu;167,7169;0
  1558;C;tlne_16_17_1;410;138;99999;1;0;8,645976;34,29824;1e+08;1e+08;0;80;80;0;3;0;60;Cu;244,6965;0
  1559;C;tlne_17_113_1;410;138;99999;1;0;1,738717;5,732244;1e+08;1e+08;0;80;80;0;3;0;60;Cu;40,32766;0
  1560;C;tlne_17_18_1;410;138;99999;1;0;2,342412;9,61722;1e+08;1e+08;0;80;80;0;3;0;60;Cu;68,15795;0
  1561;C;tlne_17_31_1;410;138;99999;1;0;9,026856;29,76577;1e+08;1e+08;0;80;80;0;3;0;60;Cu;209,5148;0
  1562;C;tlne_18_19_1;410;138;99999;1;0;2,131024;9,388692;1e+08;1e+08;0;80;80;0;3;0;60;Cu;59,96639;0
  1563;C;tlne_19_20_1;410;138;99999;1;0;4,799088;22,28148;1e+08;1e+08;0;80;80;0;3;0;60;Cu;156,4797;0
  1564;C;tlne_19_34_1;410;138;99999;1;0;14,32109;47,03868;1e+08;1e+08;0;80;80;0;3;0;60;Cu;331,8631;0
  1565;C;tlne_1_2_1;410;138;99999;1;0;5,770332;19,02496;1e+08;1e+08;0;80;80;0;3;0;60;Cu;133,3753;0
  1566;C;tlne_1_3_1;410;138;99999;1;0;2,456676;8,074656;1e+08;1e+08;0;80;80;0;3;0;60;Cu;56,8158;0
  1567;C;tlne_20_21_1;410;138;99999;1;0;3,485052;16,16836;1e+08;1e+08;0;80;80;0;3;0;60;Cu;113,4215;0
  1568;C;tlne_21_22_1;410;138;99999;1;0;3,980196;18,47268;1e+08;1e+08;0;80;80;0;3;0;60;Cu;129,1745;0
  1569;C;tlne_22_23_1;410;138;99999;1;0;6,513048;30,27996;1e+08;1e+08;0;80;80;0;3;0;60;Cu;212,1403;0
  1570;C;tlne_23_24_1;410;138;99999;1;0;2,57094;9,369648;1e+08;1e+08;0;80;80;0;3;0;60;Cu;261,4997;0
  1571;C;tlne_23_25_1;410;138;99999;1;0;2,970864;15,2352;1e+08;1e+08;0;80;80;0;3;0;60;Cu;453,6862;0
  1572;C;tlne_23_32_1;410;138;99999;1;0;6,036948;21,95773;1e+08;1e+08;0;80;80;0;3;0;60;Cu;615,942;0
  1573;C;tlne_24_70_1;410;138;99999;1;0;0,420872;78,36606;1e+08;1e+08;0;80;80;0;3;0;60;Cu;535,4968;0
  1574;C;tlne_24_72_1;410;138;99999;1;0;9,293472;37,32624;1e+08;1e+08;0;80;80;0;3;0;60;Cu;256,2487;0
  1575;C;tlne_25_27_1;410;138;99999;1;0;6,055992;31,04172;1e+08;1e+08;0;80;80;0;3;0;60;Cu;926,276;0
  1576;C;tlne_26_30_1;410;138;99999;1;0;1,521616;16,37784;1e+08;1e+08;0;80;80;0;3;0;60;Cu;4767,906;0
  1577;C;tlne_27_115_1;410;138;99999;1;0;3,123216;14,1116;1e+08;1e+08;0;80;80;0;3;0;60;Cu;103,5497;0
  1578;C;tlne_27_28_1;410;138;99999;1;0;3,643117;16,28262;1e+08;1e+08;0;80;80;0;3;0;60;Cu;113,4215;0
  1579;C;tlne_27_32_1;410;138;99999;1;0;4,361076;14,37822;1e+08;1e+08;0;80;80;0;3;0;60;Cu;101,1342;0
  1580;C;tlne_28_29_1;410;138;99999;1;0;4,513428;17,95849;1e+08;1e+08;0;80;80;0;3;0;60;Cu;124,9737;0
  1581;C;tlne_29_31_1;410;138;99999;1;0;2,056752;6,303564;1e+08;1e+08;0;80;80;0;3;0;60;Cu;43,58328;0
  1582;C;tlne_2_12_1;410;138;99999;1;0;3,561228;11,7311;1e+08;1e+08;0;80;80;0;3;0;60;Cu;82,54568;0
  1583;C;tlne_30_38_1;410;138;99999;1;0;0,883641;10,28376;1e+08;1e+08;0;80;80;0;3;0;60;Cu;2215,921;0
  1584;C;tlne_31_32_1;410;138;99999;1;0;5,675112;18,75834;1e+08;1e+08;0;80;80;0;3;0;60;Cu;131,8;0
  1585;C;tlne_32_113_1;410;138;99999;1;0;11,71206;38,65932;1e+08;1e+08;0;80;80;0;3;0;60;Cu;272,0017;0
  1586;C;tlne_32_114_1;410;138;99999;1;0;2,57094;11,65493;1e+08;1e+08;0;80;80;0;3;0;60;Cu;85,48624;0
  1587;C;tlne_33_37_1;410;138;99999;1;0;7,90326;27,04248;1e+08;1e+08;0;80;80;0;3;0;60;Cu;192,1865;0
  1588;C;tlne_34_36_1;410;138;99999;1;0;1,658732;5,103792;1e+08;1e+08;0;80;80;0;3;0;60;Cu;29,82567;0
  1589;C;tlne_34_37_1;410;138;99999;1;0;0,487526;1,790136;1e+08;1e+08;0;80;80;0;3;0;60;Cu;51,66982;0
  1590;C;tlne_34_43_1;410;138;99999;1;0;7,865172;32,01296;1e+08;1e+08;0;80;80;0;3;0;60;Cu;221,9072;0
  1591;C;tlne_35_36_1;410;138;99999;1;0;0,426585;1,942488;1e+08;1e+08;0;80;80;0;3;0;60;Cu;14,07267;0
  1592;C;tlne_35_37_1;410;138;99999;1;0;2,09484;9,464868;1e+08;1e+08;0;80;80;0;3;0;60;Cu;69,20815;0
  1593;C;tlne_37_39_1;410;138;99999;1;0;6,113124;20,18664;1e+08;1e+08;0;80;80;0;3;0;60;Cu;141,7769;0
  1594;C;tlne_37_40_1;410;138;99999;1;0;11,29309;31,99392;1e+08;1e+08;0;80;80;0;3;0;60;Cu;220,5419;0
  1595;C;tlne_38_65_1;410;138;99999;1;0;1,715864;18,77738;1e+08;1e+08;0;80;80;0;3;0;60;Cu;5492,543;0
  1596;C;tlne_39_40_1;410;138;99999;1;0;3,504096;11,52162;1e+08;1e+08;0;80;80;0;3;0;60;Cu;81,49548;0
  1597;C;tlne_3_12_1;410;138;99999;1;0;9,217296;30,4704;1e+08;1e+08;0;80;80;0;3;0;60;Cu;213,1905;0
  1598;C;tlne_3_5_1;410;138;99999;1;0;4,589604;20,56752;1e+08;1e+08;0;80;80;0;3;0;60;Cu;149,1283;0
  1599;C;tlne_40_41_1;410;138;99999;1;0;2,76138;9,274428;1e+08;1e+08;0;80;80;0;3;0;60;Cu;64,16719;0
  1600;C;tlne_40_42_1;410;138;99999;1;0;10,56942;34,85052;1e+08;1e+08;0;80;80;0;3;0;60;Cu;244,6965;0
  1601;C;tlne_41_42_1;410;138;99999;1;0;7,80804;25,7094;1e+08;1e+08;0;80;80;0;3;0;60;Cu;180,6343;0
  1602;C;tlne_42_49_1;410;138;99999;1;0;13,61646;61,51212;1e+08;1e+08;0;80;80;0;3;0;60;Cu;451,5858;0
  1603;C;tlne_43_44_1;410;138;99999;1;0;11,57875;46,73397;1e+08;1e+08;0;80;80;0;3;0;60;Cu;318,6306;0
  1604;C;tlne_44_45_1;410;138;99999;1;0;4,265856;17,15864;1e+08;1e+08;0;80;80;0;3;0;60;Cu;117,6223;0
  1605;C;tlne_45_46_1;410;138;99999;1;0;7,6176;25,82366;1e+08;1e+08;0;80;80;0;3;0;60;Cu;174,3331;0
  1606;C;tlne_45_49_1;410;138;99999;1;0;13,0261;35,42184;1e+08;1e+08;0;80;80;0;3;0;60;Cu;233,1443;0
  1607;C;tlne_46_47_1;410;138;99999;1;0;7,23672;24,18588;1e+08;1e+08;0;80;80;0;3;0;60;Cu;165,9315;0
  1608;C;tlne_46_48_1;410;138;99999;1;0;11,44544;35,99316;1e+08;1e+08;0;80;80;0;3;0;60;Cu;247,8471;0
  1609;C;tlne_47_49_1;410;138;99999;1;0;3,637404;11,9025;1e+08;1e+08;0;80;80;0;3;0;60;Cu;84,22601;0
  1610;C;tlne_47_69_1;410;138;99999;1;0;16,07314;52,90423;1e+08;1e+08;0;80;80;0;3;0;60;Cu;372,4008;0
  1611;C;tlne_48_49_1;410;138;99999;1;0;3,408876;9,61722;1e+08;1e+08;0;80;80;0;3;0;60;Cu;66,05755;0
  1612;C;tlne_49_50_1;410;138;99999;1;0;5,084748;14,32109;1e+08;1e+08;0;80;80;0;3;0;60;Cu;98,40369;0
  1613;C;tlne_49_51_1;410;138;99999;1;0;9,255384;26,09028;1e+08;1e+08;0;80;80;0;3;0;60;Cu;179,5841;0
  1614;C;tlne_49_54_1;410;138;99999;1;0;16,54924;55,41804;1e+08;1e+08;0;80;80;0;3;0;60;Cu;383,3228;0
  1615;C;tlne_49_66_1;410;138;99999;1;0;3,42792;17,50144;1e+08;1e+08;0;80;80;0;3;0;60;Cu;130,2247;0
  1616;C;tlne_49_69_1;410;138;99999;1;0;18,75834;61,70256;1e+08;1e+08;0;80;80;0;3;0;60;Cu;434,7826;0
  1617;C;tlne_4_11_1;410;138;99999;1;0;3,980196;13,10227;1e+08;1e+08;0;80;80;0;3;0;60;Cu;91,78744;0
  1618;C;tlne_4_5_1;410;138;99999;1;0;0,335174;1,519711;1e+08;1e+08;0;80;80;0;3;0;60;Cu;11,02709;0
  1619;C;tlne_50_57_1;410;138;99999;1;0;9,026856;25,51896;1e+08;1e+08;0;80;80;0;3;0;60;Cu;174,3331;0
  1620;C;tlne_51_52_1;410;138;99999;1;0;3,865932;11,19787;1e+08;1e+08;0;80;80;0;3;0;60;Cu;73,30392;0
  1621;C;tlne_51_58_1;410;138;99999;1;0;4,85622;13,69264;1e+08;1e+08;0;80;80;0;3;0;60;Cu;93,88784;0
  1622;C;tlne_52_53_1;410;138;99999;1;0;7,71282;31,13694;1e+08;1e+08;0;80;80;0;3;0;60;Cu;213,0855;0
  1623;C;tlne_53_54_1;410;138;99999;1;0;5,008572;23,23368;1e+08;1e+08;0;80;80;0;3;0;60;Cu;162,7809;0
  1624;C;tlne_54_55_1;410;138;99999;1;0;3,218436;13,46411;1e+08;1e+08;0;80;80;0;3;0;60;Cu;106,0702;0
  1625;C;tlne_54_56_1;410;138;99999;1;0;0,52371;1,818702;1e+08;1e+08;0;80;80;0;3;0;60;Cu;38,4373;0
  1626;C;tlne_54_59_1;410;138;99999;1;0;9,579132;43,66789;1e+08;1e+08;0;80;80;0;3;0;60;Cu;314,0097;0
  1627;C;tlne_55_56_1;410;138;99999;1;0;0,929347;2,875644;1e+08;1e+08;0;80;80;0;3;0;60;Cu;19,63873;0
  1628;C;tlne_55_59_1;410;138;99999;1;0;9,024952;41,09695;1e+08;1e+08;0;80;80;0;3;0;60;Cu;296,4713;0
  1629;C;tlne_56_57_1;410;138;99999;1;0;6,532092;18,3965;1e+08;1e+08;0;80;80;0;3;0;60;Cu;127,0741;0
  1630;C;tlne_56_58_1;410;138;99999;1;0;6,532092;18,3965;1e+08;1e+08;0;80;80;0;3;0;60;Cu;127,0741;0
  1631;C;tlne_56_59_1;410;138;99999;1;0;15,29233;45,51516;1e+08;1e+08;0;80;80;0;3;0;60;Cu;281,4535;0
  1632;C;tlne_59_60_1;410;138;99999;1;0;6,036948;27,6138;1e+08;1e+08;0;80;80;0;3;0;60;Cu;197,4375;0
  1633;C;tlne_59_61_1;410;138;99999;1;0;6,246432;28,566;1e+08;1e+08;0;80;80;0;3;0;60;Cu;203,7387;0
  1634;C;tlne_5_11_1;410;138;99999;1;0;3,865932;12,98801;1e+08;1e+08;0;80;80;0;3;0;60;Cu;91,26234;0
  1635;C;tlne_5_6_1;410;138;99999;1;0;2,266236;10,28376;1e+08;1e+08;0;80;80;0;3;0;60;Cu;74,87923;0
  1636;C;tlne_60_61_1;410;138;99999;1;0;0,502761;2,57094;1e+08;1e+08;0;80;80;0;3;0;60;Cu;76,45453;0
  1637;C;tlne_60_62_1;410;138;99999;1;0;2,342412;10,68368;1e+08;1e+08;0;80;80;0;3;0;60;Cu;77,08465;0
  1638;C;tlne_61_62_1;410;138;99999;1;0;1,569226;7,160544;1e+08;1e+08;0;80;80;0;3;0;60;Cu;51,45978;0
  1639;C;tlne_62_66_1;410;138;99999;1;0;9,179208;41,51592;1e+08;1e+08;0;80;80;0;3;0;60;Cu;303,5077;0
  1640;C;tlne_62_67_1;410;138;99999;1;0;4,913352;22,28148;1e+08;1e+08;0;80;80;0;3;0;60;Cu;162,7809;0
  1641;C;tlne_63_64_1;410;138;99999;1;0;0,327556;3,8088;1e+08;1e+08;0;80;80;0;3;0;60;Cu;1134,215;0
  1642;C;tlne_64_65_1;410;138;99999;1;0;0,512283;5,751288;1e+08;1e+08;0;80;80;0;3;0;60;Cu;1995,379;0
  1643;C;tlne_65_68_1;410;138;99999;1;0;0,262807;3,04704;1e+08;1e+08;0;80;80;0;3;0;60;Cu;3350,136;0
  1644;C;tlne_66_67_1;410;138;99999;1;0;4,265856;19,32966;1e+08;1e+08;0;80;80;0;3;0;60;Cu;140,8318;0
  1645;C;tlne_68_116_1;410;138;99999;1;0;0,064749;0,771282;1e+08;1e+08;0;80;80;0;3;0;60;Cu;861,1636;0
  1646;C;tlne_68_81_1;410;138;99999;1;0;0,33327;3,846888;1e+08;1e+08;0;80;80;0;3;0;60;Cu;4242,806;0
  1647;C;tlne_69_70_1;410;138;99999;1;0;5,7132;24,18588;1e+08;1e+08;0;80;80;0;3;0;60;Cu;640,6217;0
...